gcc2_compiled.:
___gnu_compiled_c:
.data
	.align 4
_ptrace_nelt:
	.word	0
	.align 4
_twolev_nelt:
	.word	3
	.align 4
_twolev_config:
	.word	1
	.word	1024
	.word	8
	.align 4
_ruu_include_spec:
	.word	1
	.align 4
_RUU_size:
	.word	8
	.align 4
_LSQ_size:
	.word	4
	.align 4
_mem_nelt:
	.word	2
	.align 4
_mem_lat:
	.word	18
	.word	2
	.align 4
_pcstat_nelt:
	.word	0
	.global _fu_config
	.align 4
_fu_config:
	.word	LC0
	.word	4
	.word	0
	.word	1
	.word	1
	.word	1
	.skip 4
	.skip 240
	.word	LC1
	.word	1
	.word	0
	.word	2
	.word	3
	.word	1
	.skip 4
	.word	3
	.word	20
	.word	19
	.skip 4
	.skip 224
	.word	LC2
	.word	2
	.word	0
	.word	10
	.word	1
	.word	1
	.skip 4
	.word	11
	.word	1
	.word	1
	.skip 4
	.skip 224
	.word	LC3
	.word	4
	.word	0
	.word	4
	.word	2
	.word	1
	.skip 4
	.word	5
	.word	2
	.word	1
	.skip 4
	.word	6
	.word	2
	.word	1
	.skip 4
	.skip 208
	.word	LC4
	.word	1
	.word	0
	.word	7
	.word	4
	.word	1
	.skip 4
	.word	8
	.word	12
	.word	12
	.skip 4
	.word	9
	.word	24
	.word	24
	.skip 4
	.skip 208
.text
	.align 8
LC4:
	.ascii "FP-MULT/DIV\0"
	.align 8
LC3:
	.ascii "FP-adder\0"
	.align 8
LC2:
	.ascii "memory-port\0"
	.align 8
LC1:
	.ascii "integer-MULT/DIV\0"
	.align 8
LC0:
	.ascii "integer-ALU\0"
.data
	.align 8
_sim_num_insn:
	.word	0
	.word	0
	.align 8
_sim_total_insn:
	.word	0
	.word	0
	.align 8
_sim_num_refs:
	.word	0
	.word	0
	.align 8
_sim_total_refs:
	.word	0
	.word	0
	.align 8
_sim_num_loads:
	.word	0
	.word	0
	.align 8
_sim_total_loads:
	.word	0
	.word	0
	.align 8
_sim_num_branches:
	.word	0
	.word	0
	.align 8
_sim_total_branches:
	.word	0
	.word	0
	.align 8
_sim_cycle:
	.word	0
	.word	0
	.align 4
_inst_seq:
	.word	0
	.align 4
_ptrace_seq:
	.word	0
	.align 4
_spec_mode:
	.word	0
	.align 4
_ruu_fetch_issue_delay:
	.word	0
	.align 4
_pred_perfect:
	.word	0
	.align 4
_fu_pool:
	.word	0
.text
	.align 8
LC5:
	.ascii "chunks > 0\0"
	.align 8
LC6:
	.ascii "sim-outorder.c\0"
	.align 8
LC7:
	.ascii "mem_access_latency\0"
	.align 4
	.proc	016
_mem_access_latency:
	!#PROLOGUE# 0
	save %sp,-120,%sp
	!#PROLOGUE# 1
	st %i0,[%fp+68]
	ld [%fp+68],%o1
	add %o1,-1,%o0
	sethi %hi(_mem_bus_width),%o1
	ld [%o1+%lo(_mem_bus_width)],%o2
	add %o0,%o2,%o0
	sethi %hi(_mem_bus_width),%o1
	ld [%o1+%lo(_mem_bus_width)],%o1
	call .div,0
	nop
	st %o0,[%fp-20]
	ld [%fp-20],%o0
	cmp %o0,0
	bg L5
	nop
	sethi %hi(LC5),%o1
	or %o1,%lo(LC5),%o0
	sethi %hi(LC6),%o2
	or %o2,%lo(LC6),%o1
	mov 396,%o2
	sethi %hi(LC7),%o4
	or %o4,%lo(LC7),%o3
	call ___assert_fail,0
	nop
	b L6
	nop
L5:
L6:
	sethi %hi(_mem_lat),%l0
	sethi %hi(_mem_lat+4),%o1
	ld [%fp-20],%o0
	add %o0,-1,%o2
	mov %o2,%o0
	ld [%o1+%lo(_mem_lat+4)],%o1
	call .umul,0
	nop
	ld [%l0+%lo(_mem_lat)],%o1
	add %o0,%o1,%o0
	mov %o0,%i0
	b L4
	nop
L4:
	ret
	restore
	.align 4
	.proc	016
_dl1_access_fn:
	!#PROLOGUE# 0
	save %sp,-144,%sp
	!#PROLOGUE# 1
	st %i0,[%fp+68]
	st %i1,[%fp+72]
	st %i2,[%fp+76]
	st %i3,[%fp+80]
	std %i4,[%fp-24]
	sethi %hi(_cache_dl2),%o0
	ld [%o0+%lo(_cache_dl2)],%o1
	cmp %o1,0
	be L8
	nop
	sethi %hi(_cache_dl2),%o0
	st %g0,[%sp+96]
	st %g0,[%sp+100]
	ld [%fp-20],%o1
	st %o1,[%sp+92]
	ld [%fp-24],%o5
	ld [%o0+%lo(_cache_dl2)],%o0
	ld [%fp+68],%o1
	ld [%fp+72],%o2
	mov 0,%o3
	ld [%fp+76],%o4
	call _cache_access,0
	nop
	st %o0,[%fp-28]
	ld [%fp+68],%o0
	cmp %o0,0
	bne L9
	nop
	ld [%fp-28],%i0
	b L7
	nop
	b L10
	nop
L9:
	mov 0,%i0
	b L7
	nop
L10:
	b L11
	nop
L8:
	ld [%fp+68],%o0
	cmp %o0,0
	bne L12
	nop
	ld [%fp+76],%o0
	call _mem_access_latency,0
	nop
	mov %o0,%i0
	b L7
	nop
	b L13
	nop
L12:
	mov 0,%i0
	b L7
	nop
L13:
L11:
L7:
	ret
	restore
	.align 4
	.proc	016
_dl2_access_fn:
	!#PROLOGUE# 0
	save %sp,-120,%sp
	!#PROLOGUE# 1
	st %i0,[%fp+68]
	st %i1,[%fp+72]
	st %i2,[%fp+76]
	st %i3,[%fp+80]
	std %i4,[%fp-24]
	ld [%fp+68],%o0
	cmp %o0,0
	bne L15
	nop
	ld [%fp+76],%o0
	call _mem_access_latency,0
	nop
	mov %o0,%i0
	b L14
	nop
	b L16
	nop
L15:
	mov 0,%i0
	b L14
	nop
L16:
L14:
	ret
	restore
	.align 8
LC8:
	.ascii "il1_access_fn\0"
	.align 8
LC9:
	.ascii "writes to instruction memory not supported\0"
	.align 4
	.proc	016
_il1_access_fn:
	!#PROLOGUE# 0
	save %sp,-144,%sp
	!#PROLOGUE# 1
	st %i0,[%fp+68]
	st %i1,[%fp+72]
	st %i2,[%fp+76]
	st %i3,[%fp+80]
	std %i4,[%fp-24]
	sethi %hi(_cache_il2),%o0
	ld [%o0+%lo(_cache_il2)],%o1
	cmp %o1,0
	be L18
	nop
	sethi %hi(_cache_il2),%o0
	st %g0,[%sp+96]
	st %g0,[%sp+100]
	ld [%fp-20],%o1
	st %o1,[%sp+92]
	ld [%fp-24],%o5
	ld [%o0+%lo(_cache_il2)],%o0
	ld [%fp+68],%o1
	ld [%fp+72],%o2
	mov 0,%o3
	ld [%fp+76],%o4
	call _cache_access,0
	nop
	st %o0,[%fp-28]
	ld [%fp+68],%o0
	cmp %o0,0
	bne L19
	nop
	ld [%fp-28],%i0
	b L17
	nop
	b L20
	nop
L19:
	sethi %hi(LC6),%o1
	or %o1,%lo(LC6),%o0
	sethi %hi(LC8),%o2
	or %o2,%lo(LC8),%o1
	mov 479,%o2
	sethi %hi(LC9),%o4
	or %o4,%lo(LC9),%o3
	call __panic,0
	nop
L20:
	b L21
	nop
L18:
	ld [%fp+68],%o0
	cmp %o0,0
	bne L22
	nop
	ld [%fp+76],%o0
	call _mem_access_latency,0
	nop
	mov %o0,%i0
	b L17
	nop
	b L23
	nop
L22:
	sethi %hi(LC6),%o1
	or %o1,%lo(LC6),%o0
	sethi %hi(LC8),%o2
	or %o2,%lo(LC8),%o1
	mov 487,%o2
	sethi %hi(LC9),%o4
	or %o4,%lo(LC9),%o3
	call __panic,0
	nop
L23:
L21:
L17:
	ret
	restore
	.align 8
LC10:
	.ascii "il2_access_fn\0"
	.align 4
	.proc	016
_il2_access_fn:
	!#PROLOGUE# 0
	save %sp,-120,%sp
	!#PROLOGUE# 1
	st %i0,[%fp+68]
	st %i1,[%fp+72]
	st %i2,[%fp+76]
	st %i3,[%fp+80]
	std %i4,[%fp-24]
	ld [%fp+68],%o0
	cmp %o0,0
	bne L25
	nop
	ld [%fp+76],%o0
	call _mem_access_latency,0
	nop
	mov %o0,%i0
	b L24
	nop
	b L26
	nop
L25:
	sethi %hi(LC6),%o1
	or %o1,%lo(LC6),%o0
	sethi %hi(LC10),%o2
	or %o2,%lo(LC10),%o1
	mov 503,%o2
	sethi %hi(LC9),%o4
	or %o4,%lo(LC9),%o3
	call __panic,0
	nop
L26:
L24:
	ret
	restore
	.align 8
LC11:
	.ascii "phy_page_ptr\0"
	.align 8
LC12:
	.ascii "itlb_access_fn\0"
	.align 4
	.proc	016
_itlb_access_fn:
	!#PROLOGUE# 0
	save %sp,-128,%sp
	!#PROLOGUE# 1
	st %i0,[%fp+68]
	st %i1,[%fp+72]
	st %i2,[%fp+76]
	st %i3,[%fp+80]
	std %i4,[%fp-24]
	ld [%fp+80],%o0
	ld [%o0+32],%o1
	st %o1,[%fp-28]
	ld [%fp-28],%o0
	cmp %o0,0
	bne L28
	nop
	sethi %hi(LC11),%o1
	or %o1,%lo(LC11),%o0
	sethi %hi(LC6),%o2
	or %o2,%lo(LC6),%o1
	mov 522,%o2
	sethi %hi(LC12),%o4
	or %o4,%lo(LC12),%o3
	call ___assert_fail,0
	nop
	b L29
	nop
L28:
L29:
	ld [%fp-28],%o0
	st %g0,[%o0]
	sethi %hi(_tlb_miss_lat),%o0
	ld [%o0+%lo(_tlb_miss_lat)],%i0
	b L27
	nop
L27:
	ret
	restore
	.align 8
LC13:
	.ascii "dtlb_access_fn\0"
	.align 4
	.proc	016
_dtlb_access_fn:
	!#PROLOGUE# 0
	save %sp,-128,%sp
	!#PROLOGUE# 1
	st %i0,[%fp+68]
	st %i1,[%fp+72]
	st %i2,[%fp+76]
	st %i3,[%fp+80]
	std %i4,[%fp-24]
	ld [%fp+80],%o0
	ld [%o0+32],%o1
	st %o1,[%fp-28]
	ld [%fp-28],%o0
	cmp %o0,0
	bne L31
	nop
	sethi %hi(LC11),%o1
	or %o1,%lo(LC11),%o0
	sethi %hi(LC6),%o2
	or %o2,%lo(LC6),%o1
	mov 542,%o2
	sethi %hi(LC13),%o4
	or %o4,%lo(LC13),%o3
	call ___assert_fail,0
	nop
	b L32
	nop
L31:
L32:
	ld [%fp-28],%o0
	st %g0,[%o0]
	sethi %hi(_tlb_miss_lat),%o0
	ld [%o0+%lo(_tlb_miss_lat)],%i0
	b L30
	nop
L30:
	ret
	restore
	.align 8
LC14:
	.ascii "sim-outorder: This simulator implements a very detailed out-of-order issue\12superscalar processor with a two-level memory system and speculative\12execution support.  This simulator is a performance simulator, tracking the\12latency of all pipeline operations.\12\0"
	.align 8
LC15:
	.ascii "-ptrace\0"
	.align 8
LC16:
	.ascii "generate pipetrace, i.e., <fname|stdout|stderr> <range>\0"
	.align 8
LC17:
	.ascii "  Pipetrace range arguments are formatted as follows:\12\12    {{@|#}<start>}:{{@|#|+}<end>}\12\12  Both ends of the range are optional, if neither are specified, the entire\12  execution is traced.  Ranges that start with a `@' designate an address\12  range to be traced, those that start with an `#' designate a cycle count\12  range.  All other range values represent an instruction count range.  The\12  second argument, if specified with a `+', indicates a value relative\12  to the first argument, e.g., 1000:+100 == 1000:1100.  Program symbols may\12  be used in all contexts.\12\12    Examples:   -ptrace FOO.trc #0:#1000\12                -ptrace BAR.trc @2000:\12                -ptrace BLAH.trc :1500\12                -ptrace UXXE.trc :\12                -ptrace FOOBAR.trc @main:+278\12\0"
	.align 8
LC18:
	.ascii "-max:inst\0"
	.align 8
LC19:
	.ascii "maximum number of inst's to execute\0"
	.align 8
LC20:
	.ascii "-fastfwd\0"
	.align 8
LC21:
	.ascii "number of insts skipped before timing starts\0"
	.align 8
LC22:
	.ascii "-fetch:ifqsize\0"
	.align 8
LC23:
	.ascii "instruction fetch queue size (in insts)\0"
	.align 8
LC24:
	.ascii "-fetch:mplat\0"
	.align 8
LC25:
	.ascii "extra branch mis-prediction latency\0"
	.align 8
LC26:
	.ascii "-bpred\0"
	.align 8
LC27:
	.ascii "branch predictor type {nottaken|taken|perfect|bimod|2lev}\0"
	.align 8
LC28:
	.ascii "bimod\0"
	.align 8
LC29:
	.ascii "-bpred:bimod\0"
	.align 8
LC30:
	.ascii "bimodal predictor BTB size\0"
	.align 8
LC31:
	.ascii "-bpred:2lev\0"
	.align 8
LC32:
	.ascii "2-level predictor config (<l1size> <l2size> <hist_size>)\0"
	.align 8
LC33:
	.ascii "-decode:width\0"
	.align 8
LC34:
	.ascii "instruction decode B/W (insts/cycle)\0"
	.align 8
LC35:
	.ascii "-issue:width\0"
	.align 8
LC36:
	.ascii "instruction issue B/W (insts/cycle)\0"
	.align 8
LC37:
	.ascii "-issue:inorder\0"
	.align 8
LC38:
	.ascii "run pipeline with in-order issue\0"
	.align 8
LC39:
	.ascii "-issue:wrongpath\0"
	.align 8
LC40:
	.ascii "issue instructions down wrong execution paths\0"
	.align 8
LC41:
	.ascii "-commit:width\0"
	.align 8
LC42:
	.ascii "instruction commit B/W (insts/cycle)\0"
	.align 8
LC43:
	.ascii "-ruu:size\0"
	.align 8
LC44:
	.ascii "register update unit (RUU) size\0"
	.align 8
LC45:
	.ascii "-lsq:size\0"
	.align 8
LC46:
	.ascii "load/store queue (LSQ) size\0"
	.align 8
LC47:
	.ascii "-cache:dl1\0"
	.align 8
LC48:
	.ascii "l1 data cache config, i.e., {<config>|none}\0"
	.align 8
LC49:
	.ascii "dl1:128:32:4:l\0"
	.align 8
LC50:
	.ascii "  The cache config parameter <config> has the following format:\12\12    <name>:<nsets>:<bsize>:<assoc>:<repl>\12\12    <name>   - name of the cache being defined\12    <nsets>  - number of sets in the cache\12    <bsize>  - block size of the cache\12    <assoc>  - associativity of the cache\12    <repl>   - block replacement strategy, 'l'-LRU, 'f'-FIFO, 'r'-random\12\12    Examples:   -cache:dl1 dl1:4096:32:1:l\12                -dtlb dtlb:128:4096:32:r\12\0"
	.align 8
LC51:
	.ascii "-cache:dl1lat\0"
	.align 8
LC52:
	.ascii "l1 data cache hit latency (in cycles)\0"
	.align 8
LC53:
	.ascii "-cache:dl2\0"
	.align 8
LC54:
	.ascii "l2 data cache config, i.e., {<config>|none}\0"
	.align 8
LC55:
	.ascii "ul2:1024:64:4:l\0"
	.align 8
LC56:
	.ascii "-cache:dl2lat\0"
	.align 8
LC57:
	.ascii "l2 data cache hit latency (in cycles)\0"
	.align 8
LC58:
	.ascii "-cache:il1\0"
	.align 8
LC59:
	.ascii "l1 inst cache config, i.e., {<config>|dl1|dl2|none}\0"
	.align 8
LC60:
	.ascii "il1:512:32:1:l\0"
	.align 8
LC61:
	.ascii "  Cache levels can be unified by pointing a level of the instruction cache\12  hierarchy at the data cache hiearchy using the \"dl1\" and \"dl2\" cache\12  configuration arguments.  Most sensible combinations are supported, e.g.,\12\12    A unified l2 cache (il2 is pointed at dl2):\12      -cache:il1 il1:128:64:1:l -cache:il2 dl2\12      -cache:dl1 dl1:256:32:1:l -cache:dl2 ul2:1024:64:2:l\12\12    Or, a fully unified cache hierarchy (il1 pointed at dl1):\12      -cache:il1 dl1\12      -cache:dl1 ul1:256:32:1:l -cache:dl2 ul2:1024:64:2:l\12\0"
	.align 8
LC62:
	.ascii "-cache:il1lat\0"
	.align 8
LC63:
	.ascii "l1 instruction cache hit latency (in cycles)\0"
	.align 8
LC64:
	.ascii "-cache:il2\0"
	.align 8
LC65:
	.ascii "l2 instruction cache config, i.e., {<config>|dl2|none}\0"
	.align 8
LC66:
	.ascii "dl2\0"
	.align 8
LC67:
	.ascii "-cache:il2lat\0"
	.align 8
LC68:
	.ascii "l2 instruction cache hit latency (in cycles)\0"
	.align 8
LC69:
	.ascii "-cache:flush\0"
	.align 8
LC70:
	.ascii "flush caches on system calls\0"
	.align 8
LC71:
	.ascii "-cache:icompress\0"
	.align 8
LC72:
	.ascii "convert 64-bit inst addresses to 32-bit inst equivalents\0"
	.align 8
LC73:
	.ascii "-mem:lat\0"
	.align 8
LC74:
	.ascii "memory access latency (<first_chunk> <inter_chunk>)\0"
	.align 8
LC75:
	.ascii "-mem:width\0"
	.align 8
LC76:
	.ascii "memory access bus width (in bytes)\0"
	.align 8
LC77:
	.ascii "-tlb:itlb\0"
	.align 8
LC78:
	.ascii "instruction TLB config, i.e., {<config>|none}\0"
	.align 8
LC79:
	.ascii "itlb:16:4096:4:l\0"
	.align 8
LC80:
	.ascii "-tlb:dtlb\0"
	.align 8
LC81:
	.ascii "data TLB config, i.e., {<config>|none}\0"
	.align 8
LC82:
	.ascii "dtlb:32:4096:4:l\0"
	.align 8
LC83:
	.ascii "-tlb:lat\0"
	.align 8
LC84:
	.ascii "inst/data TLB miss latency (in cycles)\0"
	.align 8
LC85:
	.ascii "-res:ialu\0"
	.align 8
LC86:
	.ascii "total number of integer ALU's available\0"
	.align 8
LC87:
	.ascii "-res:imult\0"
	.align 8
LC88:
	.ascii "total number of integer multiplier/dividers available\0"
	.align 8
LC89:
	.ascii "-res:memport\0"
	.align 8
LC90:
	.ascii "total number of memory system ports available (to CPU)\0"
	.align 8
LC91:
	.ascii "-res:fpalu\0"
	.align 8
LC92:
	.ascii "total number of floating point ALU's available\0"
	.align 8
LC93:
	.ascii "-res:fpmult\0"
	.align 8
LC94:
	.ascii "total number of floating point multiplier/dividers available\0"
	.align 8
LC95:
	.ascii "-pcstat\0"
	.align 8
LC96:
	.ascii "profile stat(s) against text addr's (mult uses ok)\0"
	.align 8
LC97:
	.ascii "-bugcompat\0"
	.align 8
LC98:
	.ascii "operate in backward-compatible bugs mode (for testing only)\0"
	.align 4
	.global _sim_reg_options
	.proc	020
_sim_reg_options:
	!#PROLOGUE# 0
	save %sp,-128,%sp
	!#PROLOGUE# 1
	st %i0,[%fp+68]
	ld [%fp+68],%o0
	sethi %hi(LC14),%o2
	or %o2,%lo(LC14),%o1
	call _opt_reg_header,0
	nop
	st %g0,[%sp+92]
	st %g0,[%sp+96]
	st %g0,[%sp+100]
	st %g0,[%sp+104]
	ld [%fp+68],%o0
	sethi %hi(LC15),%o2
	or %o2,%lo(LC15),%o1
	sethi %hi(LC16),%o3
	or %o3,%lo(LC16),%o2
	sethi %hi(_ptrace_opts),%o4
	or %o4,%lo(_ptrace_opts),%o3
	mov 2,%o4
	sethi %hi(_ptrace_nelt),%g2
	or %g2,%lo(_ptrace_nelt),%o5
	call _opt_reg_string_list,0
	nop
	ld [%fp+68],%o0
	sethi %hi(LC17),%o2
	or %o2,%lo(LC17),%o1
	call _opt_reg_note,0
	nop
	st %g0,[%sp+92]
	ld [%fp+68],%o0
	sethi %hi(LC18),%o2
	or %o2,%lo(LC18),%o1
	sethi %hi(LC19),%o3
	or %o3,%lo(LC19),%o2
	sethi %hi(_max_insts),%o4
	or %o4,%lo(_max_insts),%o3
	mov 0,%o4
	mov 1,%o5
	call _opt_reg_uint,0
	nop
	st %g0,[%sp+92]
	ld [%fp+68],%o0
	sethi %hi(LC20),%o2
	or %o2,%lo(LC20),%o1
	sethi %hi(LC21),%o3
	or %o3,%lo(LC21),%o2
	sethi %hi(_fastfwd_count),%o4
	or %o4,%lo(_fastfwd_count),%o3
	mov 0,%o4
	mov 1,%o5
	call _opt_reg_int,0
	nop
	st %g0,[%sp+92]
	ld [%fp+68],%o0
	sethi %hi(LC22),%o2
	or %o2,%lo(LC22),%o1
	sethi %hi(LC23),%o3
	or %o3,%lo(LC23),%o2
	sethi %hi(_ruu_ifq_size),%o4
	or %o4,%lo(_ruu_ifq_size),%o3
	mov 4,%o4
	mov 1,%o5
	call _opt_reg_int,0
	nop
	st %g0,[%sp+92]
	ld [%fp+68],%o0
	sethi %hi(LC24),%o2
	or %o2,%lo(LC24),%o1
	sethi %hi(LC25),%o3
	or %o3,%lo(LC25),%o2
	sethi %hi(_ruu_branch_penalty),%o4
	or %o4,%lo(_ruu_branch_penalty),%o3
	mov 3,%o4
	mov 1,%o5
	call _opt_reg_int,0
	nop
	st %g0,[%sp+92]
	ld [%fp+68],%o0
	sethi %hi(LC26),%o2
	or %o2,%lo(LC26),%o1
	sethi %hi(LC27),%o3
	or %o3,%lo(LC27),%o2
	sethi %hi(_pred_type),%o4
	or %o4,%lo(_pred_type),%o3
	sethi %hi(LC28),%o5
	or %o5,%lo(LC28),%o4
	mov 1,%o5
	call _opt_reg_string,0
	nop
	st %g0,[%sp+92]
	ld [%fp+68],%o0
	sethi %hi(LC29),%o2
	or %o2,%lo(LC29),%o1
	sethi %hi(LC30),%o3
	or %o3,%lo(LC30),%o2
	sethi %hi(_btb_size),%o4
	or %o4,%lo(_btb_size),%o3
	mov 2048,%o4
	mov 1,%o5
	call _opt_reg_int,0
	nop
	sethi %hi(_twolev_nelt),%o4
	sethi %hi(_twolev_config),%o1
	or %o1,%lo(_twolev_config),%o0
	st %o0,[%sp+92]
	mov 1,%o0
	st %o0,[%sp+96]
	st %g0,[%sp+100]
	st %g0,[%sp+104]
	ld [%fp+68],%o0
	sethi %hi(LC31),%o2
	or %o2,%lo(LC31),%o1
	sethi %hi(LC32),%o3
	or %o3,%lo(LC32),%o2
	sethi %hi(_twolev_config),%o5
	or %o5,%lo(_twolev_config),%o3
	ld [%o4+%lo(_twolev_nelt)],%o4
	sethi %hi(_twolev_nelt),%g2
	or %g2,%lo(_twolev_nelt),%o5
	call _opt_reg_int_list,0
	nop
	st %g0,[%sp+92]
	ld [%fp+68],%o0
	sethi %hi(LC33),%o2
	or %o2,%lo(LC33),%o1
	sethi %hi(LC34),%o3
	or %o3,%lo(LC34),%o2
	sethi %hi(_ruu_decode_width),%o4
	or %o4,%lo(_ruu_decode_width),%o3
	mov 4,%o4
	mov 1,%o5
	call _opt_reg_int,0
	nop
	st %g0,[%sp+92]
	ld [%fp+68],%o0
	sethi %hi(LC35),%o2
	or %o2,%lo(LC35),%o1
	sethi %hi(LC36),%o3
	or %o3,%lo(LC36),%o2
	sethi %hi(_ruu_issue_width),%o4
	or %o4,%lo(_ruu_issue_width),%o3
	mov 4,%o4
	mov 1,%o5
	call _opt_reg_int,0
	nop
	st %g0,[%sp+92]
	ld [%fp+68],%o0
	sethi %hi(LC37),%o2
	or %o2,%lo(LC37),%o1
	sethi %hi(LC38),%o3
	or %o3,%lo(LC38),%o2
	sethi %hi(_ruu_inorder_issue),%o4
	or %o4,%lo(_ruu_inorder_issue),%o3
	mov 0,%o4
	mov 1,%o5
	call _opt_reg_flag,0
	nop
	st %g0,[%sp+92]
	ld [%fp+68],%o0
	sethi %hi(LC39),%o2
	or %o2,%lo(LC39),%o1
	sethi %hi(LC40),%o3
	or %o3,%lo(LC40),%o2
	sethi %hi(_ruu_include_spec),%o4
	or %o4,%lo(_ruu_include_spec),%o3
	mov 1,%o4
	mov 1,%o5
	call _opt_reg_flag,0
	nop
	st %g0,[%sp+92]
	ld [%fp+68],%o0
	sethi %hi(LC41),%o2
	or %o2,%lo(LC41),%o1
	sethi %hi(LC42),%o3
	or %o3,%lo(LC42),%o2
	sethi %hi(_ruu_commit_width),%o4
	or %o4,%lo(_ruu_commit_width),%o3
	mov 4,%o4
	mov 1,%o5
	call _opt_reg_int,0
	nop
	st %g0,[%sp+92]
	ld [%fp+68],%o0
	sethi %hi(LC43),%o2
	or %o2,%lo(LC43),%o1
	sethi %hi(LC44),%o3
	or %o3,%lo(LC44),%o2
	sethi %hi(_RUU_size),%o4
	or %o4,%lo(_RUU_size),%o3
	mov 16,%o4
	mov 1,%o5
	call _opt_reg_int,0
	nop
	st %g0,[%sp+92]
	ld [%fp+68],%o0
	sethi %hi(LC45),%o2
	or %o2,%lo(LC45),%o1
	sethi %hi(LC46),%o3
	or %o3,%lo(LC46),%o2
	sethi %hi(_LSQ_size),%o4
	or %o4,%lo(_LSQ_size),%o3
	mov 8,%o4
	mov 1,%o5
	call _opt_reg_int,0
	nop
	st %g0,[%sp+92]
	ld [%fp+68],%o0
	sethi %hi(LC47),%o2
	or %o2,%lo(LC47),%o1
	sethi %hi(LC48),%o3
	or %o3,%lo(LC48),%o2
	sethi %hi(_cache_dl1_opt),%o4
	or %o4,%lo(_cache_dl1_opt),%o3
	sethi %hi(LC49),%o5
	or %o5,%lo(LC49),%o4
	mov 1,%o5
	call _opt_reg_string,0
	nop
	ld [%fp+68],%o0
	sethi %hi(LC50),%o2
	or %o2,%lo(LC50),%o1
	call _opt_reg_note,0
	nop
	st %g0,[%sp+92]
	ld [%fp+68],%o0
	sethi %hi(LC51),%o2
	or %o2,%lo(LC51),%o1
	sethi %hi(LC52),%o3
	or %o3,%lo(LC52),%o2
	sethi %hi(_cache_dl1_lat),%o4
	or %o4,%lo(_cache_dl1_lat),%o3
	mov 1,%o4
	mov 1,%o5
	call _opt_reg_int,0
	nop
	st %g0,[%sp+92]
	ld [%fp+68],%o0
	sethi %hi(LC53),%o2
	or %o2,%lo(LC53),%o1
	sethi %hi(LC54),%o3
	or %o3,%lo(LC54),%o2
	sethi %hi(_cache_dl2_opt),%o4
	or %o4,%lo(_cache_dl2_opt),%o3
	sethi %hi(LC55),%o5
	or %o5,%lo(LC55),%o4
	mov 1,%o5
	call _opt_reg_string,0
	nop
	st %g0,[%sp+92]
	ld [%fp+68],%o0
	sethi %hi(LC56),%o2
	or %o2,%lo(LC56),%o1
	sethi %hi(LC57),%o3
	or %o3,%lo(LC57),%o2
	sethi %hi(_cache_dl2_lat),%o4
	or %o4,%lo(_cache_dl2_lat),%o3
	mov 6,%o4
	mov 1,%o5
	call _opt_reg_int,0
	nop
	st %g0,[%sp+92]
	ld [%fp+68],%o0
	sethi %hi(LC58),%o2
	or %o2,%lo(LC58),%o1
	sethi %hi(LC59),%o3
	or %o3,%lo(LC59),%o2
	sethi %hi(_cache_il1_opt),%o4
	or %o4,%lo(_cache_il1_opt),%o3
	sethi %hi(LC60),%o5
	or %o5,%lo(LC60),%o4
	mov 1,%o5
	call _opt_reg_string,0
	nop
	ld [%fp+68],%o0
	sethi %hi(LC61),%o2
	or %o2,%lo(LC61),%o1
	call _opt_reg_note,0
	nop
	st %g0,[%sp+92]
	ld [%fp+68],%o0
	sethi %hi(LC62),%o2
	or %o2,%lo(LC62),%o1
	sethi %hi(LC63),%o3
	or %o3,%lo(LC63),%o2
	sethi %hi(_cache_il1_lat),%o4
	or %o4,%lo(_cache_il1_lat),%o3
	mov 1,%o4
	mov 1,%o5
	call _opt_reg_int,0
	nop
	st %g0,[%sp+92]
	ld [%fp+68],%o0
	sethi %hi(LC64),%o2
	or %o2,%lo(LC64),%o1
	sethi %hi(LC65),%o3
	or %o3,%lo(LC65),%o2
	sethi %hi(_cache_il2_opt),%o4
	or %o4,%lo(_cache_il2_opt),%o3
	sethi %hi(LC66),%o5
	or %o5,%lo(LC66),%o4
	mov 1,%o5
	call _opt_reg_string,0
	nop
	st %g0,[%sp+92]
	ld [%fp+68],%o0
	sethi %hi(LC67),%o2
	or %o2,%lo(LC67),%o1
	sethi %hi(LC68),%o3
	or %o3,%lo(LC68),%o2
	sethi %hi(_cache_il2_lat),%o4
	or %o4,%lo(_cache_il2_lat),%o3
	mov 6,%o4
	mov 1,%o5
	call _opt_reg_int,0
	nop
	st %g0,[%sp+92]
	ld [%fp+68],%o0
	sethi %hi(LC69),%o2
	or %o2,%lo(LC69),%o1
	sethi %hi(LC70),%o3
	or %o3,%lo(LC70),%o2
	sethi %hi(_flush_on_syscalls),%o4
	or %o4,%lo(_flush_on_syscalls),%o3
	mov 0,%o4
	mov 1,%o5
	call _opt_reg_flag,0
	nop
	st %g0,[%sp+92]
	ld [%fp+68],%o0
	sethi %hi(LC71),%o2
	or %o2,%lo(LC71),%o1
	sethi %hi(LC72),%o3
	or %o3,%lo(LC72),%o2
	sethi %hi(_compress_icache_addrs),%o4
	or %o4,%lo(_compress_icache_addrs),%o3
	mov 0,%o4
	mov 1,%o5
	call _opt_reg_flag,0
	nop
	sethi %hi(_mem_nelt),%o4
	sethi %hi(_mem_lat),%o1
	or %o1,%lo(_mem_lat),%o0
	st %o0,[%sp+92]
	mov 1,%o0
	st %o0,[%sp+96]
	st %g0,[%sp+100]
	st %g0,[%sp+104]
	ld [%fp+68],%o0
	sethi %hi(LC73),%o2
	or %o2,%lo(LC73),%o1
	sethi %hi(LC74),%o3
	or %o3,%lo(LC74),%o2
	sethi %hi(_mem_lat),%o5
	or %o5,%lo(_mem_lat),%o3
	ld [%o4+%lo(_mem_nelt)],%o4
	sethi %hi(_mem_nelt),%g2
	or %g2,%lo(_mem_nelt),%o5
	call _opt_reg_int_list,0
	nop
	st %g0,[%sp+92]
	ld [%fp+68],%o0
	sethi %hi(LC75),%o2
	or %o2,%lo(LC75),%o1
	sethi %hi(LC76),%o3
	or %o3,%lo(LC76),%o2
	sethi %hi(_mem_bus_width),%o4
	or %o4,%lo(_mem_bus_width),%o3
	mov 8,%o4
	mov 1,%o5
	call _opt_reg_int,0
	nop
	st %g0,[%sp+92]
	ld [%fp+68],%o0
	sethi %hi(LC77),%o2
	or %o2,%lo(LC77),%o1
	sethi %hi(LC78),%o3
	or %o3,%lo(LC78),%o2
	sethi %hi(_itlb_opt),%o4
	or %o4,%lo(_itlb_opt),%o3
	sethi %hi(LC79),%o5
	or %o5,%lo(LC79),%o4
	mov 1,%o5
	call _opt_reg_string,0
	nop
	st %g0,[%sp+92]
	ld [%fp+68],%o0
	sethi %hi(LC80),%o2
	or %o2,%lo(LC80),%o1
	sethi %hi(LC81),%o3
	or %o3,%lo(LC81),%o2
	sethi %hi(_dtlb_opt),%o4
	or %o4,%lo(_dtlb_opt),%o3
	sethi %hi(LC82),%o5
	or %o5,%lo(LC82),%o4
	mov 1,%o5
	call _opt_reg_string,0
	nop
	st %g0,[%sp+92]
	ld [%fp+68],%o0
	sethi %hi(LC83),%o2
	or %o2,%lo(LC83),%o1
	sethi %hi(LC84),%o3
	or %o3,%lo(LC84),%o2
	sethi %hi(_tlb_miss_lat),%o4
	or %o4,%lo(_tlb_miss_lat),%o3
	mov 30,%o4
	mov 1,%o5
	call _opt_reg_int,0
	nop
	sethi %hi(_fu_config+4),%o4
	st %g0,[%sp+92]
	ld [%fp+68],%o0
	sethi %hi(LC85),%o2
	or %o2,%lo(LC85),%o1
	sethi %hi(LC86),%o3
	or %o3,%lo(LC86),%o2
	sethi %hi(_res_ialu),%o5
	or %o5,%lo(_res_ialu),%o3
	ld [%o4+%lo(_fu_config+4)],%o4
	mov 1,%o5
	call _opt_reg_int,0
	nop
	sethi %hi(_fu_config+272),%o4
	st %g0,[%sp+92]
	ld [%fp+68],%o0
	sethi %hi(LC87),%o2
	or %o2,%lo(LC87),%o1
	sethi %hi(LC88),%o3
	or %o3,%lo(LC88),%o2
	sethi %hi(_res_imult),%o5
	or %o5,%lo(_res_imult),%o3
	ld [%o4+%lo(_fu_config+272)],%o4
	mov 1,%o5
	call _opt_reg_int,0
	nop
	sethi %hi(_fu_config+540),%o4
	st %g0,[%sp+92]
	ld [%fp+68],%o0
	sethi %hi(LC89),%o2
	or %o2,%lo(LC89),%o1
	sethi %hi(LC90),%o3
	or %o3,%lo(LC90),%o2
	sethi %hi(_res_memport),%o5
	or %o5,%lo(_res_memport),%o3
	ld [%o4+%lo(_fu_config+540)],%o4
	mov 1,%o5
	call _opt_reg_int,0
	nop
	sethi %hi(_fu_config+808),%o4
	st %g0,[%sp+92]
	ld [%fp+68],%o0
	sethi %hi(LC91),%o2
	or %o2,%lo(LC91),%o1
	sethi %hi(LC92),%o3
	or %o3,%lo(LC92),%o2
	sethi %hi(_res_fpalu),%o5
	or %o5,%lo(_res_fpalu),%o3
	ld [%o4+%lo(_fu_config+808)],%o4
	mov 1,%o5
	call _opt_reg_int,0
	nop
	sethi %hi(_fu_config+1076),%o4
	st %g0,[%sp+92]
	ld [%fp+68],%o0
	sethi %hi(LC93),%o2
	or %o2,%lo(LC93),%o1
	sethi %hi(LC94),%o3
	or %o3,%lo(LC94),%o2
	sethi %hi(_res_fpmult),%o5
	or %o5,%lo(_res_fpmult),%o3
	ld [%o4+%lo(_fu_config+1076)],%o4
	mov 1,%o5
	call _opt_reg_int,0
	nop
	st %g0,[%sp+92]
	st %g0,[%sp+96]
	st %g0,[%sp+100]
	mov 1,%o0
	st %o0,[%sp+104]
	ld [%fp+68],%o0
	sethi %hi(LC95),%o2
	or %o2,%lo(LC95),%o1
	sethi %hi(LC96),%o3
	or %o3,%lo(LC96),%o2
	sethi %hi(_pcstat_vars),%o4
	or %o4,%lo(_pcstat_vars),%o3
	mov 8,%o4
	sethi %hi(_pcstat_nelt),%g2
	or %g2,%lo(_pcstat_nelt),%o5
	call _opt_reg_string_list,0
	nop
	st %g0,[%sp+92]
	ld [%fp+68],%o0
	sethi %hi(LC97),%o2
	or %o2,%lo(LC97),%o1
	sethi %hi(LC98),%o3
	or %o3,%lo(LC98),%o2
	sethi %hi(_bugcompat_mode),%o4
	or %o4,%lo(_bugcompat_mode),%o3
	mov 0,%o4
	mov 1,%o5
	call _opt_reg_flag,0
	nop
L33:
	ret
	restore
	.align 8
LC99:
	.ascii "sim_check_options\0"
	.align 8
LC100:
	.ascii "bad fast forward count: %d\0"
	.align 8
LC101:
	.ascii "inst fetch queue size must be positive > 0 and a power of two\0"
	.align 8
LC102:
	.ascii "mis-prediction penalty must be at least 1 cycle\0"
	.align 8
LC103:
	.ascii "perfect\0"
	.align 8
LC104:
	.ascii "taken\0"
	.align 8
LC105:
	.ascii "nottaken\0"
	.align 8
LC106:
	.ascii "2lev\0"
	.align 8
LC107:
	.ascii "bad 2-level predictor config (<l1size> <l2size> <hist_size>)\0"
	.align 8
LC108:
	.ascii "cannot parse predictor type `%s'\0"
	.align 8
LC109:
	.ascii "issue width must be positive non-zero and a power of two\0"
	.align 8
LC110:
	.ascii "commit width must be positive non-zero\0"
	.align 8
LC111:
	.ascii "RUU size must be a positive number > 1 and a power of two\0"
	.align 8
LC112:
	.ascii "LSQ size must be a positive number > 1 and a power of two\0"
	.align 8
LC113:
	.ascii "none\0"
	.align 8
LC114:
	.ascii "the l1 data cache must defined if the l2 cache is defined\0"
	.align 8
LC115:
	.ascii "%[^:]:%d:%d:%d:%c\0"
	.align 8
LC116:
	.ascii "bad l1 D-cache parms: <name>:<nsets>:<bsize>:<assoc>:<repl>\0"
	.align 8
LC117:
	.ascii "bad l2 D-cache parms: <name>:<nsets>:<bsize>:<assoc>:<repl>\0"
	.align 8
LC118:
	.ascii "the l1 inst cache must defined if the l2 cache is defined\0"
	.align 8
LC119:
	.ascii "dl1\0"
	.align 8
LC120:
	.ascii "I-cache l1 cannot access D-cache l1 as it's undefined\0"
	.align 8
LC121:
	.ascii "I-cache l1 cannot access D-cache l2 as it's undefined\0"
	.align 8
LC122:
	.ascii "bad l1 I-cache parms: <name>:<nsets>:<bsize>:<assoc>:<repl>\0"
	.align 8
LC123:
	.ascii "I-cache l2 cannot access D-cache l2 as it's undefined\0"
	.align 8
LC124:
	.ascii "bad l2 I-cache parms: <name>:<nsets>:<bsize>:<assoc>:<repl>\0"
	.align 8
LC125:
	.ascii "bad TLB parms: <name>:<nsets>:<page_size>:<assoc>:<repl>\0"
	.align 8
LC126:
	.ascii "l1 data cache latency must be greater than zero\0"
	.align 8
LC127:
	.ascii "l2 data cache latency must be greater than zero\0"
	.align 8
LC128:
	.ascii "l1 instruction cache latency must be greater than zero\0"
	.align 8
LC129:
	.ascii "l2 instruction cache latency must be greater than zero\0"
	.align 8
LC130:
	.ascii "bad memory access latency (<first_chunk> <inter_chunk>)\0"
	.align 8
LC131:
	.ascii "all memory access latencies must be greater than zero\0"
	.align 8
LC132:
	.ascii "memory bus width must be positive non-zero and a power of two\0"
	.align 8
LC133:
	.ascii "TLB miss latency must be greater than zero\0"
	.align 8
LC134:
	.ascii "number of integer ALU's must be greater than zero\0"
	.align 8
LC135:
	.ascii "number of integer ALU's must be <= MAX_INSTS_PER_CLASS\0"
	.align 8
LC136:
	.ascii "number of integer multiplier/dividers must be greater than zero\0"
	.align 8
LC137:
	.ascii "number of integer mult/div's must be <= MAX_INSTS_PER_CLASS\0"
	.align 8
LC138:
	.ascii "number of memory system ports must be greater than zero\0"
	.align 8
LC139:
	.ascii "number of memory system ports must be <= MAX_INSTS_PER_CLASS\0"
	.align 8
LC140:
	.ascii "number of floating point ALU's must be greater than zero\0"
	.align 8
LC141:
	.ascii "number of floating point ALU's must be <= MAX_INSTS_PER_CLASS\0"
	.align 8
LC142:
	.ascii "number of floating point multiplier/dividers must be > zero\0"
	.align 8
LC143:
	.ascii "number of FP mult/div's must be <= MAX_INSTS_PER_CLASS\0"
	.align 4
	.global _sim_check_options
	.proc	020
_sim_check_options:
	!#PROLOGUE# 0
	save %sp,-272,%sp
	!#PROLOGUE# 1
	st %i0,[%fp+68]
	st %i1,[%fp+72]
	st %i2,[%fp+76]
	sethi %hi(_fastfwd_count),%o0
	ld [%o0+%lo(_fastfwd_count)],%o1
	cmp %o1,0
	bl L36
	nop
	sethi %hi(_fastfwd_count),%o1
	ld [%o1+%lo(_fastfwd_count)],%o0
	sethi %hi(2147483646),%o2
	or %o2,%lo(2147483646),%o1
	cmp %o0,%o1
	bg L36
	nop
	b L35
	nop
L36:
	sethi %hi(_fastfwd_count),%o4
	sethi %hi(LC6),%o1
	or %o1,%lo(LC6),%o0
	sethi %hi(LC99),%o2
	or %o2,%lo(LC99),%o1
	mov 819,%o2
	sethi %hi(LC100),%o5
	or %o5,%lo(LC100),%o3
	ld [%o4+%lo(_fastfwd_count)],%o4
	call __fatal,0
	nop
L35:
	sethi %hi(_ruu_ifq_size),%o0
	ld [%o0+%lo(_ruu_ifq_size)],%o1
	cmp %o1,0
	ble L38
	nop
	sethi %hi(_ruu_ifq_size),%o0
	sethi %hi(_ruu_ifq_size),%o1
	ld [%o1+%lo(_ruu_ifq_size)],%o2
	add %o2,-1,%o1
	ld [%o0+%lo(_ruu_ifq_size)],%o2
	and %o1,%o2,%o0
	cmp %o0,0
	bne L38
	nop
	b L37
	nop
L38:
	sethi %hi(LC6),%o1
	or %o1,%lo(LC6),%o0
	sethi %hi(LC99),%o2
	or %o2,%lo(LC99),%o1
	mov 822,%o2
	sethi %hi(LC101),%o4
	or %o4,%lo(LC101),%o3
	call __fatal,0
	nop
L37:
	sethi %hi(_ruu_branch_penalty),%o0
	ld [%o0+%lo(_ruu_branch_penalty)],%o1
	cmp %o1,0
	bg L39
	nop
	sethi %hi(LC6),%o1
	or %o1,%lo(LC6),%o0
	sethi %hi(LC99),%o2
	or %o2,%lo(LC99),%o1
	mov 825,%o2
	sethi %hi(LC102),%o4
	or %o4,%lo(LC102),%o3
	call __fatal,0
	nop
L39:
	sethi %hi(_pred_type),%o1
	ld [%o1+%lo(_pred_type)],%o0
	sethi %hi(LC103),%o2
	or %o2,%lo(LC103),%o1
	call _mystricmp,0
	nop
	cmp %o0,0
	bne L40
	nop
	sethi %hi(_pred),%o0
	st %g0,[%o0+%lo(_pred)]
	sethi %hi(_pred_perfect),%o0
	mov 1,%o1
	st %o1,[%o0+%lo(_pred_perfect)]
	b L41
	nop
L40:
	sethi %hi(_pred_type),%o1
	ld [%o1+%lo(_pred_type)],%o0
	sethi %hi(LC104),%o2
	or %o2,%lo(LC104),%o1
	call _mystricmp,0
	nop
	cmp %o0,0
	bne L42
	nop
	mov 2,%o0
	mov 0,%o1
	mov 0,%o2
	mov 0,%o3
	call _bpred_create,0
	nop
	sethi %hi(_pred),%o1
	st %o0,[%o1+%lo(_pred)]
	b L43
	nop
L42:
	sethi %hi(_pred_type),%o1
	ld [%o1+%lo(_pred_type)],%o0
	sethi %hi(LC105),%o2
	or %o2,%lo(LC105),%o1
	call _mystricmp,0
	nop
	cmp %o0,0
	bne L44
	nop
	mov 3,%o0
	mov 0,%o1
	mov 0,%o2
	mov 0,%o3
	call _bpred_create,0
	nop
	sethi %hi(_pred),%o1
	st %o0,[%o1+%lo(_pred)]
	b L45
	nop
L44:
	sethi %hi(_pred_type),%o1
	ld [%o1+%lo(_pred_type)],%o0
	sethi %hi(LC28),%o2
	or %o2,%lo(LC28),%o1
	call _mystricmp,0
	nop
	cmp %o0,0
	bne L46
	nop
	sethi %hi(_btb_size),%o1
	mov 1,%o0
	ld [%o1+%lo(_btb_size)],%o1
	mov 0,%o2
	mov 0,%o3
	call _bpred_create,0
	nop
	sethi %hi(_pred),%o1
	st %o0,[%o1+%lo(_pred)]
	b L47
	nop
L46:
	sethi %hi(_pred_type),%o1
	ld [%o1+%lo(_pred_type)],%o0
	sethi %hi(LC106),%o2
	or %o2,%lo(LC106),%o1
	call _mystricmp,0
	nop
	cmp %o0,0
	bne L48
	nop
	sethi %hi(_twolev_nelt),%o0
	ld [%o0+%lo(_twolev_nelt)],%o1
	cmp %o1,3
	be L49
	nop
	sethi %hi(LC6),%o1
	or %o1,%lo(LC6),%o0
	sethi %hi(LC99),%o2
	or %o2,%lo(LC99),%o1
	mov 852,%o2
	sethi %hi(LC107),%o4
	or %o4,%lo(LC107),%o3
	call __fatal,0
	nop
L49:
	sethi %hi(_twolev_config),%o1
	sethi %hi(_twolev_config+4),%o2
	sethi %hi(_twolev_config+8),%o3
	mov 0,%o0
	ld [%o1+%lo(_twolev_config)],%o1
	ld [%o2+%lo(_twolev_config+4)],%o2
	ld [%o3+%lo(_twolev_config+8)],%o3
	call _bpred_create,0
	nop
	sethi %hi(_pred),%o1
	st %o0,[%o1+%lo(_pred)]
	b L50
	nop
L48:
	sethi %hi(_pred_type),%o4
	sethi %hi(LC6),%o1
	or %o1,%lo(LC6),%o0
	sethi %hi(LC99),%o2
	or %o2,%lo(LC99),%o1
	mov 859,%o2
	sethi %hi(LC108),%o5
	or %o5,%lo(LC108),%o3
	ld [%o4+%lo(_pred_type)],%o4
	call __fatal,0
	nop
L50:
L47:
L45:
L43:
L41:
	sethi %hi(_ruu_decode_width),%o0
	ld [%o0+%lo(_ruu_decode_width)],%o1
	cmp %o1,0
	ble L52
	nop
	sethi %hi(_ruu_decode_width),%o0
	sethi %hi(_ruu_decode_width),%o1
	ld [%o1+%lo(_ruu_decode_width)],%o2
	add %o2,-1,%o1
	ld [%o0+%lo(_ruu_decode_width)],%o2
	and %o1,%o2,%o0
	cmp %o0,0
	bne L52
	nop
	b L51
	nop
L52:
	sethi %hi(LC6),%o1
	or %o1,%lo(LC6),%o0
	sethi %hi(LC99),%o2
	or %o2,%lo(LC99),%o1
	mov 862,%o2
	sethi %hi(LC109),%o4
	or %o4,%lo(LC109),%o3
	call __fatal,0
	nop
L51:
	sethi %hi(_ruu_issue_width),%o0
	ld [%o0+%lo(_ruu_issue_width)],%o1
	cmp %o1,0
	ble L54
	nop
	sethi %hi(_ruu_issue_width),%o0
	sethi %hi(_ruu_issue_width),%o1
	ld [%o1+%lo(_ruu_issue_width)],%o2
	add %o2,-1,%o1
	ld [%o0+%lo(_ruu_issue_width)],%o2
	and %o1,%o2,%o0
	cmp %o0,0
	bne L54
	nop
	b L53
	nop
L54:
	sethi %hi(LC6),%o1
	or %o1,%lo(LC6),%o0
	sethi %hi(LC99),%o2
	or %o2,%lo(LC99),%o1
	mov 865,%o2
	sethi %hi(LC109),%o4
	or %o4,%lo(LC109),%o3
	call __fatal,0
	nop
L53:
	sethi %hi(_ruu_commit_width),%o0
	ld [%o0+%lo(_ruu_commit_width)],%o1
	cmp %o1,0
	bg L55
	nop
	sethi %hi(LC6),%o1
	or %o1,%lo(LC6),%o0
	sethi %hi(LC99),%o2
	or %o2,%lo(LC99),%o1
	mov 868,%o2
	sethi %hi(LC110),%o4
	or %o4,%lo(LC110),%o3
	call __fatal,0
	nop
L55:
	sethi %hi(_RUU_size),%o0
	ld [%o0+%lo(_RUU_size)],%o1
	cmp %o1,1
	ble L57
	nop
	sethi %hi(_RUU_size),%o0
	sethi %hi(_RUU_size),%o1
	ld [%o1+%lo(_RUU_size)],%o2
	add %o2,-1,%o1
	ld [%o0+%lo(_RUU_size)],%o2
	and %o1,%o2,%o0
	cmp %o0,0
	bne L57
	nop
	b L56
	nop
L57:
	sethi %hi(LC6),%o1
	or %o1,%lo(LC6),%o0
	sethi %hi(LC99),%o2
	or %o2,%lo(LC99),%o1
	mov 871,%o2
	sethi %hi(LC111),%o4
	or %o4,%lo(LC111),%o3
	call __fatal,0
	nop
L56:
	sethi %hi(_LSQ_size),%o0
	ld [%o0+%lo(_LSQ_size)],%o1
	cmp %o1,1
	ble L59
	nop
	sethi %hi(_LSQ_size),%o0
	sethi %hi(_LSQ_size),%o1
	ld [%o1+%lo(_LSQ_size)],%o2
	add %o2,-1,%o1
	ld [%o0+%lo(_LSQ_size)],%o2
	and %o1,%o2,%o0
	cmp %o0,0
	bne L59
	nop
	b L58
	nop
L59:
	sethi %hi(LC6),%o1
	or %o1,%lo(LC6),%o0
	sethi %hi(LC99),%o2
	or %o2,%lo(LC99),%o1
	mov 874,%o2
	sethi %hi(LC112),%o4
	or %o4,%lo(LC112),%o3
	call __fatal,0
	nop
L58:
	sethi %hi(_cache_dl1_opt),%o1
	ld [%o1+%lo(_cache_dl1_opt)],%o0
	sethi %hi(LC113),%o2
	or %o2,%lo(LC113),%o1
	call _mystricmp,0
	nop
	cmp %o0,0
	bne L60
	nop
	sethi %hi(_cache_dl1),%o0
	st %g0,[%o0+%lo(_cache_dl1)]
	sethi %hi(_cache_dl2_opt),%o1
	ld [%o1+%lo(_cache_dl2_opt)],%o0
	sethi %hi(LC113),%o2
	or %o2,%lo(LC113),%o1
	call _strcmp,0
	nop
	cmp %o0,0
	be L61
	nop
	sethi %hi(LC6),%o1
	or %o1,%lo(LC6),%o0
	sethi %hi(LC99),%o2
	or %o2,%lo(LC99),%o1
	mov 883,%o2
	sethi %hi(LC114),%o4
	or %o4,%lo(LC114),%o3
	call __fatal,0
	nop
L61:
	sethi %hi(_cache_dl2),%o0
	st %g0,[%o0+%lo(_cache_dl2)]
	b L62
	nop
L60:
	sethi %hi(_cache_dl1_opt),%o0
	add %fp,-144,%o2
	add %fp,-152,%o3
	add %fp,-156,%o4
	add %fp,-160,%o5
	add %fp,-145,%o1
	st %o1,[%sp+92]
	ld [%o0+%lo(_cache_dl1_opt)],%o0
	sethi %hi(LC115),%g2
	or %g2,%lo(LC115),%o1
	call _sscanf,0
	nop
	cmp %o0,5
	be L63
	nop
	sethi %hi(LC6),%o1
	or %o1,%lo(LC6),%o0
	sethi %hi(LC99),%o2
	or %o2,%lo(LC99),%o1
	mov 890,%o2
	sethi %hi(LC116),%o4
	or %o4,%lo(LC116),%o3
	call __fatal,0
	nop
L63:
	ldub [%fp-145],%o0
	sll %o0,24,%o2
	sra %o2,24,%o1
	mov %o1,%o0
	call _cache_char2policy,0
	nop
	mov %o0,%o1
	add %fp,-144,%o0
	st %o1,[%sp+92]
	sethi %hi(_dl1_access_fn),%o2
	or %o2,%lo(_dl1_access_fn),%o1
	st %o1,[%sp+96]
	sethi %hi(_cache_dl1_lat),%o1
	ld [%o1+%lo(_cache_dl1_lat)],%o2
	st %o2,[%sp+100]
	ld [%fp-152],%o1
	ld [%fp-156],%o2
	mov 0,%o3
	mov 0,%o4
	ld [%fp-160],%o5
	call _cache_create,0
	nop
	sethi %hi(_cache_dl1),%o1
	st %o0,[%o1+%lo(_cache_dl1)]
	sethi %hi(_cache_dl2_opt),%o1
	ld [%o1+%lo(_cache_dl2_opt)],%o0
	sethi %hi(LC113),%o2
	or %o2,%lo(LC113),%o1
	call _mystricmp,0
	nop
	cmp %o0,0
	bne L64
	nop
	sethi %hi(_cache_dl2),%o0
	st %g0,[%o0+%lo(_cache_dl2)]
	b L65
	nop
L64:
	sethi %hi(_cache_dl2_opt),%o0
	add %fp,-144,%o2
	add %fp,-152,%o3
	add %fp,-156,%o4
	add %fp,-160,%o5
	add %fp,-145,%o1
	st %o1,[%sp+92]
	ld [%o0+%lo(_cache_dl2_opt)],%o0
	sethi %hi(LC115),%g2
	or %g2,%lo(LC115),%o1
	call _sscanf,0
	nop
	cmp %o0,5
	be L66
	nop
	sethi %hi(LC6),%o1
	or %o1,%lo(LC6),%o0
	sethi %hi(LC99),%o2
	or %o2,%lo(LC99),%o1
	mov 903,%o2
	sethi %hi(LC117),%o4
	or %o4,%lo(LC117),%o3
	call __fatal,0
	nop
L66:
	ldub [%fp-145],%o0
	sll %o0,24,%o2
	sra %o2,24,%o1
	mov %o1,%o0
	call _cache_char2policy,0
	nop
	mov %o0,%o1
	add %fp,-144,%o0
	st %o1,[%sp+92]
	sethi %hi(_dl2_access_fn),%o2
	or %o2,%lo(_dl2_access_fn),%o1
	st %o1,[%sp+96]
	sethi %hi(_cache_dl2_lat),%o1
	ld [%o1+%lo(_cache_dl2_lat)],%o2
	st %o2,[%sp+100]
	ld [%fp-152],%o1
	ld [%fp-156],%o2
	mov 0,%o3
	mov 0,%o4
	ld [%fp-160],%o5
	call _cache_create,0
	nop
	sethi %hi(_cache_dl2),%o1
	st %o0,[%o1+%lo(_cache_dl2)]
L65:
L62:
	sethi %hi(_cache_il1_opt),%o1
	ld [%o1+%lo(_cache_il1_opt)],%o0
	sethi %hi(LC113),%o2
	or %o2,%lo(LC113),%o1
	call _mystricmp,0
	nop
	cmp %o0,0
	bne L67
	nop
	sethi %hi(_cache_il1),%o0
	st %g0,[%o0+%lo(_cache_il1)]
	sethi %hi(_cache_il2_opt),%o1
	ld [%o1+%lo(_cache_il2_opt)],%o0
	sethi %hi(LC113),%o2
	or %o2,%lo(LC113),%o1
	call _strcmp,0
	nop
	cmp %o0,0
	be L68
	nop
	sethi %hi(LC6),%o1
	or %o1,%lo(LC6),%o0
	sethi %hi(LC99),%o2
	or %o2,%lo(LC99),%o1
	mov 917,%o2
	sethi %hi(LC118),%o4
	or %o4,%lo(LC118),%o3
	call __fatal,0
	nop
L68:
	sethi %hi(_cache_il2),%o0
	st %g0,[%o0+%lo(_cache_il2)]
	b L69
	nop
L67:
	sethi %hi(_cache_il1_opt),%o1
	ld [%o1+%lo(_cache_il1_opt)],%o0
	sethi %hi(LC119),%o2
	or %o2,%lo(LC119),%o1
	call _mystricmp,0
	nop
	cmp %o0,0
	bne L70
	nop
	sethi %hi(_cache_dl1),%o0
	ld [%o0+%lo(_cache_dl1)],%o1
	cmp %o1,0
	bne L71
	nop
	sethi %hi(LC6),%o1
	or %o1,%lo(LC6),%o0
	sethi %hi(LC99),%o2
	or %o2,%lo(LC99),%o1
	mov 923,%o2
	sethi %hi(LC120),%o4
	or %o4,%lo(LC120),%o3
	call __fatal,0
	nop
L71:
	sethi %hi(_cache_il1),%o0
	sethi %hi(_cache_dl1),%o1
	ld [%o1+%lo(_cache_dl1)],%o2
	st %o2,[%o0+%lo(_cache_il1)]
	sethi %hi(_cache_il2_opt),%o1
	ld [%o1+%lo(_cache_il2_opt)],%o0
	sethi %hi(LC113),%o2
	or %o2,%lo(LC113),%o1
	call _strcmp,0
	nop
	cmp %o0,0
	be L72
	nop
	sethi %hi(LC6),%o1
	or %o1,%lo(LC6),%o0
	sethi %hi(LC99),%o2
	or %o2,%lo(LC99),%o1
	mov 928,%o2
	sethi %hi(LC118),%o4
	or %o4,%lo(LC118),%o3
	call __fatal,0
	nop
L72:
	sethi %hi(_cache_il2),%o0
	st %g0,[%o0+%lo(_cache_il2)]
	b L73
	nop
L70:
	sethi %hi(_cache_il1_opt),%o1
	ld [%o1+%lo(_cache_il1_opt)],%o0
	sethi %hi(LC66),%o2
	or %o2,%lo(LC66),%o1
	call _mystricmp,0
	nop
	cmp %o0,0
	bne L74
	nop
	sethi %hi(_cache_dl2),%o0
	ld [%o0+%lo(_cache_dl2)],%o1
	cmp %o1,0
	bne L75
	nop
	sethi %hi(LC6),%o1
	or %o1,%lo(LC6),%o0
	sethi %hi(LC99),%o2
	or %o2,%lo(LC99),%o1
	mov 934,%o2
	sethi %hi(LC121),%o4
	or %o4,%lo(LC121),%o3
	call __fatal,0
	nop
L75:
	sethi %hi(_cache_il1),%o0
	sethi %hi(_cache_dl2),%o1
	ld [%o1+%lo(_cache_dl2)],%o2
	st %o2,[%o0+%lo(_cache_il1)]
	sethi %hi(_cache_il2_opt),%o1
	ld [%o1+%lo(_cache_il2_opt)],%o0
	sethi %hi(LC113),%o2
	or %o2,%lo(LC113),%o1
	call _strcmp,0
	nop
	cmp %o0,0
	be L76
	nop
	sethi %hi(LC6),%o1
	or %o1,%lo(LC6),%o0
	sethi %hi(LC99),%o2
	or %o2,%lo(LC99),%o1
	mov 939,%o2
	sethi %hi(LC118),%o4
	or %o4,%lo(LC118),%o3
	call __fatal,0
	nop
L76:
	sethi %hi(_cache_il2),%o0
	st %g0,[%o0+%lo(_cache_il2)]
	b L77
	nop
L74:
	sethi %hi(_cache_il1_opt),%o0
	add %fp,-144,%o2
	add %fp,-152,%o3
	add %fp,-156,%o4
	add %fp,-160,%o5
	add %fp,-145,%o1
	st %o1,[%sp+92]
	ld [%o0+%lo(_cache_il1_opt)],%o0
	sethi %hi(LC115),%g2
	or %g2,%lo(LC115),%o1
	call _sscanf,0
	nop
	cmp %o0,5
	be L78
	nop
	sethi %hi(LC6),%o1
	or %o1,%lo(LC6),%o0
	sethi %hi(LC99),%o2
	or %o2,%lo(LC99),%o1
	mov 946,%o2
	sethi %hi(LC122),%o4
	or %o4,%lo(LC122),%o3
	call __fatal,0
	nop
L78:
	ldub [%fp-145],%o0
	sll %o0,24,%o2
	sra %o2,24,%o1
	mov %o1,%o0
	call _cache_char2policy,0
	nop
	mov %o0,%o1
	add %fp,-144,%o0
	st %o1,[%sp+92]
	sethi %hi(_il1_access_fn),%o2
	or %o2,%lo(_il1_access_fn),%o1
	st %o1,[%sp+96]
	sethi %hi(_cache_il1_lat),%o1
	ld [%o1+%lo(_cache_il1_lat)],%o2
	st %o2,[%sp+100]
	ld [%fp-152],%o1
	ld [%fp-156],%o2
	mov 0,%o3
	mov 0,%o4
	ld [%fp-160],%o5
	call _cache_create,0
	nop
	sethi %hi(_cache_il1),%o1
	st %o0,[%o1+%lo(_cache_il1)]
	sethi %hi(_cache_il2_opt),%o1
	ld [%o1+%lo(_cache_il2_opt)],%o0
	sethi %hi(LC113),%o2
	or %o2,%lo(LC113),%o1
	call _mystricmp,0
	nop
	cmp %o0,0
	bne L79
	nop
	sethi %hi(_cache_il2),%o0
	st %g0,[%o0+%lo(_cache_il2)]
	b L80
	nop
L79:
	sethi %hi(_cache_il2_opt),%o1
	ld [%o1+%lo(_cache_il2_opt)],%o0
	sethi %hi(LC66),%o2
	or %o2,%lo(LC66),%o1
	call _mystricmp,0
	nop
	cmp %o0,0
	bne L81
	nop
	sethi %hi(_cache_dl2),%o0
	ld [%o0+%lo(_cache_dl2)],%o1
	cmp %o1,0
	bne L82
	nop
	sethi %hi(LC6),%o1
	or %o1,%lo(LC6),%o0
	sethi %hi(LC99),%o2
	or %o2,%lo(LC99),%o1
	mov 957,%o2
	sethi %hi(LC123),%o4
	or %o4,%lo(LC123),%o3
	call __fatal,0
	nop
L82:
	sethi %hi(_cache_il2),%o0
	sethi %hi(_cache_dl2),%o1
	ld [%o1+%lo(_cache_dl2)],%o2
	st %o2,[%o0+%lo(_cache_il2)]
	b L83
	nop
L81:
	sethi %hi(_cache_il2_opt),%o0
	add %fp,-144,%o2
	add %fp,-152,%o3
	add %fp,-156,%o4
	add %fp,-160,%o5
	add %fp,-145,%o1
	st %o1,[%sp+92]
	ld [%o0+%lo(_cache_il2_opt)],%o0
	sethi %hi(LC115),%g2
	or %g2,%lo(LC115),%o1
	call _sscanf,0
	nop
	cmp %o0,5
	be L84
	nop
	sethi %hi(LC6),%o1
	or %o1,%lo(LC6),%o0
	sethi %hi(LC99),%o2
	or %o2,%lo(LC99),%o1
	mov 965,%o2
	sethi %hi(LC124),%o4
	or %o4,%lo(LC124),%o3
	call __fatal,0
	nop
L84:
	ldub [%fp-145],%o0
	sll %o0,24,%o2
	sra %o2,24,%o1
	mov %o1,%o0
	call _cache_char2policy,0
	nop
	mov %o0,%o1
	add %fp,-144,%o0
	st %o1,[%sp+92]
	sethi %hi(_il2_access_fn),%o2
	or %o2,%lo(_il2_access_fn),%o1
	st %o1,[%sp+96]
	sethi %hi(_cache_il2_lat),%o1
	ld [%o1+%lo(_cache_il2_lat)],%o2
	st %o2,[%sp+100]
	ld [%fp-152],%o1
	ld [%fp-156],%o2
	mov 0,%o3
	mov 0,%o4
	ld [%fp-160],%o5
	call _cache_create,0
	nop
	sethi %hi(_cache_il2),%o1
	st %o0,[%o1+%lo(_cache_il2)]
L83:
L80:
L77:
L73:
L69:
	sethi %hi(_itlb_opt),%o1
	ld [%o1+%lo(_itlb_opt)],%o0
	sethi %hi(LC113),%o2
	or %o2,%lo(LC113),%o1
	call _mystricmp,0
	nop
	cmp %o0,0
	bne L85
	nop
	sethi %hi(_itlb),%o0
	st %g0,[%o0+%lo(_itlb)]
	b L86
	nop
L85:
	sethi %hi(_itlb_opt),%o0
	add %fp,-144,%o2
	add %fp,-152,%o3
	add %fp,-156,%o4
	add %fp,-160,%o5
	add %fp,-145,%o1
	st %o1,[%sp+92]
	ld [%o0+%lo(_itlb_opt)],%o0
	sethi %hi(LC115),%g2
	or %g2,%lo(LC115),%o1
	call _sscanf,0
	nop
	cmp %o0,5
	be L87
	nop
	sethi %hi(LC6),%o1
	or %o1,%lo(LC6),%o0
	sethi %hi(LC99),%o2
	or %o2,%lo(LC99),%o1
	mov 979,%o2
	sethi %hi(LC125),%o4
	or %o4,%lo(LC125),%o3
	call __fatal,0
	nop
L87:
	ldub [%fp-145],%o0
	sll %o0,24,%o2
	sra %o2,24,%o1
	mov %o1,%o0
	call _cache_char2policy,0
	nop
	mov %o0,%o1
	add %fp,-144,%o0
	st %o1,[%sp+92]
	sethi %hi(_itlb_access_fn),%o2
	or %o2,%lo(_itlb_access_fn),%o1
	st %o1,[%sp+96]
	mov 1,%o1
	st %o1,[%sp+100]
	ld [%fp-152],%o1
	ld [%fp-156],%o2
	mov 0,%o3
	mov 4,%o4
	ld [%fp-160],%o5
	call _cache_create,0
	nop
	sethi %hi(_itlb),%o1
	st %o0,[%o1+%lo(_itlb)]
L86:
	sethi %hi(_dtlb_opt),%o1
	ld [%o1+%lo(_dtlb_opt)],%o0
	sethi %hi(LC113),%o2
	or %o2,%lo(LC113),%o1
	call _mystricmp,0
	nop
	cmp %o0,0
	bne L88
	nop
	sethi %hi(_dtlb),%o0
	st %g0,[%o0+%lo(_dtlb)]
	b L89
	nop
L88:
	sethi %hi(_dtlb_opt),%o0
	add %fp,-144,%o2
	add %fp,-152,%o3
	add %fp,-156,%o4
	add %fp,-160,%o5
	add %fp,-145,%o1
	st %o1,[%sp+92]
	ld [%o0+%lo(_dtlb_opt)],%o0
	sethi %hi(LC115),%g2
	or %g2,%lo(LC115),%o1
	call _sscanf,0
	nop
	cmp %o0,5
	be L90
	nop
	sethi %hi(LC6),%o1
	or %o1,%lo(LC6),%o0
	sethi %hi(LC99),%o2
	or %o2,%lo(LC99),%o1
	mov 993,%o2
	sethi %hi(LC125),%o4
	or %o4,%lo(LC125),%o3
	call __fatal,0
	nop
L90:
	ldub [%fp-145],%o0
	sll %o0,24,%o2
	sra %o2,24,%o1
	mov %o1,%o0
	call _cache_char2policy,0
	nop
	mov %o0,%o1
	add %fp,-144,%o0
	st %o1,[%sp+92]
	sethi %hi(_dtlb_access_fn),%o2
	or %o2,%lo(_dtlb_access_fn),%o1
	st %o1,[%sp+96]
	mov 1,%o1
	st %o1,[%sp+100]
	ld [%fp-152],%o1
	ld [%fp-156],%o2
	mov 0,%o3
	mov 4,%o4
	ld [%fp-160],%o5
	call _cache_create,0
	nop
	sethi %hi(_dtlb),%o1
	st %o0,[%o1+%lo(_dtlb)]
L89:
	sethi %hi(_cache_dl1_lat),%o0
	ld [%o0+%lo(_cache_dl1_lat)],%o1
	cmp %o1,0
	bg L91
	nop
	sethi %hi(LC6),%o1
	or %o1,%lo(LC6),%o0
	sethi %hi(LC99),%o2
	or %o2,%lo(LC99),%o1
	mov 1001,%o2
	sethi %hi(LC126),%o4
	or %o4,%lo(LC126),%o3
	call __fatal,0
	nop
L91:
	sethi %hi(_cache_dl2_lat),%o0
	ld [%o0+%lo(_cache_dl2_lat)],%o1
	cmp %o1,0
	bg L92
	nop
	sethi %hi(LC6),%o1
	or %o1,%lo(LC6),%o0
	sethi %hi(LC99),%o2
	or %o2,%lo(LC99),%o1
	mov 1004,%o2
	sethi %hi(LC127),%o4
	or %o4,%lo(LC127),%o3
	call __fatal,0
	nop
L92:
	sethi %hi(_cache_il1_lat),%o0
	ld [%o0+%lo(_cache_il1_lat)],%o1
	cmp %o1,0
	bg L93
	nop
	sethi %hi(LC6),%o1
	or %o1,%lo(LC6),%o0
	sethi %hi(LC99),%o2
	or %o2,%lo(LC99),%o1
	mov 1007,%o2
	sethi %hi(LC128),%o4
	or %o4,%lo(LC128),%o3
	call __fatal,0
	nop
L93:
	sethi %hi(_cache_il2_lat),%o0
	ld [%o0+%lo(_cache_il2_lat)],%o1
	cmp %o1,0
	bg L94
	nop
	sethi %hi(LC6),%o1
	or %o1,%lo(LC6),%o0
	sethi %hi(LC99),%o2
	or %o2,%lo(LC99),%o1
	mov 1010,%o2
	sethi %hi(LC129),%o4
	or %o4,%lo(LC129),%o3
	call __fatal,0
	nop
L94:
	sethi %hi(_mem_nelt),%o0
	ld [%o0+%lo(_mem_nelt)],%o1
	cmp %o1,2
	be L95
	nop
	sethi %hi(LC6),%o1
	or %o1,%lo(LC6),%o0
	sethi %hi(LC99),%o2
	or %o2,%lo(LC99),%o1
	mov 1013,%o2
	sethi %hi(LC130),%o4
	or %o4,%lo(LC130),%o3
	call __fatal,0
	nop
L95:
	sethi %hi(_mem_lat),%o0
	ld [%o0+%lo(_mem_lat)],%o1
	cmp %o1,0
	ble L97
	nop
	sethi %hi(_mem_lat+4),%o0
	ld [%o0+%lo(_mem_lat+4)],%o1
	cmp %o1,0
	ble L97
	nop
	b L96
	nop
L97:
	sethi %hi(LC6),%o1
	or %o1,%lo(LC6),%o0
	sethi %hi(LC99),%o2
	or %o2,%lo(LC99),%o1
	mov 1016,%o2
	sethi %hi(LC131),%o4
	or %o4,%lo(LC131),%o3
	call __fatal,0
	nop
L96:
	sethi %hi(_mem_bus_width),%o0
	ld [%o0+%lo(_mem_bus_width)],%o1
	cmp %o1,0
	ble L99
	nop
	sethi %hi(_mem_bus_width),%o0
	sethi %hi(_mem_bus_width),%o1
	ld [%o1+%lo(_mem_bus_width)],%o2
	add %o2,-1,%o1
	ld [%o0+%lo(_mem_bus_width)],%o2
	and %o1,%o2,%o0
	cmp %o0,0
	bne L99
	nop
	b L98
	nop
L99:
	sethi %hi(LC6),%o1
	or %o1,%lo(LC6),%o0
	sethi %hi(LC99),%o2
	or %o2,%lo(LC99),%o1
	mov 1019,%o2
	sethi %hi(LC132),%o4
	or %o4,%lo(LC132),%o3
	call __fatal,0
	nop
L98:
	sethi %hi(_tlb_miss_lat),%o0
	ld [%o0+%lo(_tlb_miss_lat)],%o1
	cmp %o1,0
	bg L100
	nop
	sethi %hi(LC6),%o1
	or %o1,%lo(LC6),%o0
	sethi %hi(LC99),%o2
	or %o2,%lo(LC99),%o1
	mov 1022,%o2
	sethi %hi(LC133),%o4
	or %o4,%lo(LC133),%o3
	call __fatal,0
	nop
L100:
	sethi %hi(_res_ialu),%o0
	ld [%o0+%lo(_res_ialu)],%o1
	cmp %o1,0
	bg L101
	nop
	sethi %hi(LC6),%o1
	or %o1,%lo(LC6),%o0
	sethi %hi(LC99),%o2
	or %o2,%lo(LC99),%o1
	mov 1025,%o2
	sethi %hi(LC134),%o4
	or %o4,%lo(LC134),%o3
	call __fatal,0
	nop
L101:
	sethi %hi(_res_ialu),%o0
	ld [%o0+%lo(_res_ialu)],%o1
	cmp %o1,8
	ble L102
	nop
	sethi %hi(LC6),%o1
	or %o1,%lo(LC6),%o0
	sethi %hi(LC99),%o2
	or %o2,%lo(LC99),%o1
	mov 1027,%o2
	sethi %hi(LC135),%o4
	or %o4,%lo(LC135),%o3
	call __fatal,0
	nop
L102:
	sethi %hi(_fu_config),%o0
	mov 4,%o1
	or %o0,%lo(_fu_config),%o2
	add %o1,%o2,%o0
	sethi %hi(_res_ialu),%o1
	ld [%o1+%lo(_res_ialu)],%o2
	st %o2,[%o0]
	sethi %hi(_res_imult),%o0
	ld [%o0+%lo(_res_imult)],%o1
	cmp %o1,0
	bg L103
	nop
	sethi %hi(LC6),%o1
	or %o1,%lo(LC6),%o0
	sethi %hi(LC99),%o2
	or %o2,%lo(LC99),%o1
	mov 1031,%o2
	sethi %hi(LC136),%o4
	or %o4,%lo(LC136),%o3
	call __fatal,0
	nop
L103:
	sethi %hi(_res_imult),%o0
	ld [%o0+%lo(_res_imult)],%o1
	cmp %o1,8
	ble L104
	nop
	sethi %hi(LC6),%o1
	or %o1,%lo(LC6),%o0
	sethi %hi(LC99),%o2
	or %o2,%lo(LC99),%o1
	mov 1033,%o2
	sethi %hi(LC137),%o4
	or %o4,%lo(LC137),%o3
	call __fatal,0
	nop
L104:
	sethi %hi(_fu_config),%o0
	mov 272,%o1
	or %o0,%lo(_fu_config),%o2
	add %o1,%o2,%o0
	sethi %hi(_res_imult),%o1
	ld [%o1+%lo(_res_imult)],%o2
	st %o2,[%o0]
	sethi %hi(_res_memport),%o0
	ld [%o0+%lo(_res_memport)],%o1
	cmp %o1,0
	bg L105
	nop
	sethi %hi(LC6),%o1
	or %o1,%lo(LC6),%o0
	sethi %hi(LC99),%o2
	or %o2,%lo(LC99),%o1
	mov 1037,%o2
	sethi %hi(LC138),%o4
	or %o4,%lo(LC138),%o3
	call __fatal,0
	nop
L105:
	sethi %hi(_res_memport),%o0
	ld [%o0+%lo(_res_memport)],%o1
	cmp %o1,8
	ble L106
	nop
	sethi %hi(LC6),%o1
	or %o1,%lo(LC6),%o0
	sethi %hi(LC99),%o2
	or %o2,%lo(LC99),%o1
	mov 1039,%o2
	sethi %hi(LC139),%o4
	or %o4,%lo(LC139),%o3
	call __fatal,0
	nop
L106:
	sethi %hi(_fu_config),%o0
	mov 540,%o1
	or %o0,%lo(_fu_config),%o2
	add %o1,%o2,%o0
	sethi %hi(_res_memport),%o1
	ld [%o1+%lo(_res_memport)],%o2
	st %o2,[%o0]
	sethi %hi(_res_fpalu),%o0
	ld [%o0+%lo(_res_fpalu)],%o1
	cmp %o1,0
	bg L107
	nop
	sethi %hi(LC6),%o1
	or %o1,%lo(LC6),%o0
	sethi %hi(LC99),%o2
	or %o2,%lo(LC99),%o1
	mov 1043,%o2
	sethi %hi(LC140),%o4
	or %o4,%lo(LC140),%o3
	call __fatal,0
	nop
L107:
	sethi %hi(_res_fpalu),%o0
	ld [%o0+%lo(_res_fpalu)],%o1
	cmp %o1,8
	ble L108
	nop
	sethi %hi(LC6),%o1
	or %o1,%lo(LC6),%o0
	sethi %hi(LC99),%o2
	or %o2,%lo(LC99),%o1
	mov 1045,%o2
	sethi %hi(LC141),%o4
	or %o4,%lo(LC141),%o3
	call __fatal,0
	nop
L108:
	sethi %hi(_fu_config),%o0
	mov 808,%o1
	or %o0,%lo(_fu_config),%o2
	add %o1,%o2,%o0
	sethi %hi(_res_fpalu),%o1
	ld [%o1+%lo(_res_fpalu)],%o2
	st %o2,[%o0]
	sethi %hi(_res_fpmult),%o0
	ld [%o0+%lo(_res_fpmult)],%o1
	cmp %o1,0
	bg L109
	nop
	sethi %hi(LC6),%o1
	or %o1,%lo(LC6),%o0
	sethi %hi(LC99),%o2
	or %o2,%lo(LC99),%o1
	mov 1049,%o2
	sethi %hi(LC142),%o4
	or %o4,%lo(LC142),%o3
	call __fatal,0
	nop
L109:
	sethi %hi(_res_fpmult),%o0
	ld [%o0+%lo(_res_fpmult)],%o1
	cmp %o1,8
	ble L110
	nop
	sethi %hi(LC6),%o1
	or %o1,%lo(LC6),%o0
	sethi %hi(LC99),%o2
	or %o2,%lo(LC99),%o1
	mov 1051,%o2
	sethi %hi(LC143),%o4
	or %o4,%lo(LC143),%o3
	call __fatal,0
	nop
L110:
	sethi %hi(_fu_config),%o0
	mov 1076,%o1
	or %o0,%lo(_fu_config),%o2
	add %o1,%o2,%o0
	sethi %hi(_res_fpmult),%o1
	ld [%o1+%lo(_res_fpmult)],%o2
	st %o2,[%o0]
L34:
	ret
	restore
	.align 4
	.global _sim_aux_config
	.proc	020
_sim_aux_config:
	!#PROLOGUE# 0
	save %sp,-112,%sp
	!#PROLOGUE# 1
	st %i0,[%fp+68]
L111:
	ret
	restore
	.align 8
LC144:
	.ascii "sim_num_insn\0"
	.align 8
LC145:
	.ascii "total number of instructions committed\0"
	.align 8
LC146:
	.ascii "sim_num_refs\0"
	.align 8
LC147:
	.ascii "total number of loads and stores committed\0"
	.align 8
LC148:
	.ascii "sim_num_loads\0"
	.align 8
LC149:
	.ascii "total number of loads committed\0"
	.align 8
LC150:
	.ascii "sim_num_stores\0"
	.align 8
LC151:
	.ascii "total number of stores committed\0"
	.align 8
LC152:
	.ascii "sim_num_refs - sim_num_loads\0"
	.align 8
LC153:
	.ascii "sim_num_branches\0"
	.align 8
LC154:
	.ascii "total number of branches committed\0"
	.align 8
LC155:
	.ascii "sim_elapsed_time\0"
	.align 8
LC156:
	.ascii "total simulation time in seconds\0"
	.align 8
LC157:
	.ascii "sim_inst_rate\0"
	.align 8
LC158:
	.ascii "simulation speed (in insts/sec)\0"
	.align 8
LC159:
	.ascii "sim_num_insn / sim_elapsed_time\0"
	.align 8
LC160:
	.ascii "sim_total_insn\0"
	.align 8
LC161:
	.ascii "total number of instructions executed\0"
	.align 8
LC162:
	.ascii "sim_total_refs\0"
	.align 8
LC163:
	.ascii "total number of loads and stores executed\0"
	.align 8
LC164:
	.ascii "sim_total_loads\0"
	.align 8
LC165:
	.ascii "total number of loads executed\0"
	.align 8
LC166:
	.ascii "sim_total_stores\0"
	.align 8
LC167:
	.ascii "total number of stores executed\0"
	.align 8
LC168:
	.ascii "sim_total_refs - sim_total_loads\0"
	.align 8
LC169:
	.ascii "sim_total_branches\0"
	.align 8
LC170:
	.ascii "total number of branches executed\0"
	.align 8
LC171:
	.ascii "sim_cycle\0"
	.align 8
LC172:
	.ascii "total simulation time in cycles\0"
	.align 8
LC173:
	.ascii "sim_IPC\0"
	.align 8
LC174:
	.ascii "instructions per cycle\0"
	.align 8
LC175:
	.ascii "sim_num_insn / sim_cycle\0"
	.align 8
LC176:
	.ascii "sim_CPI\0"
	.align 8
LC177:
	.ascii "cycles per instruction\0"
	.align 8
LC178:
	.ascii "sim_cycle / sim_num_insn\0"
	.align 8
LC179:
	.ascii "sim_exec_BW\0"
	.align 8
LC180:
	.ascii "total instructions (mis-spec + committed) per cycle\0"
	.align 8
LC181:
	.ascii "sim_total_insn / sim_cycle\0"
	.align 8
LC182:
	.ascii "sim_IPB\0"
	.align 8
LC183:
	.ascii "instruction per branch\0"
	.align 8
LC184:
	.ascii "sim_num_insn / sim_num_branches\0"
	.align 8
LC185:
	.ascii "sim_reg_stats\0"
	.align 8
LC186:
	.ascii "cannot locate any statistic named `%s'\0"
	.align 8
LC187:
	.ascii "`-pcstat' statistical variable `%s' is not an integral type\0"
	.align 8
LC188:
	.ascii "bad stat class\0"
	.align 8
LC189:
	.ascii "%s_by_pc\0"
	.align 8
LC190:
	.ascii "%s (by text address)\0"
	.align 8
LC191:
	.ascii "0x%lx %lu %.2f\0"
	.align 4
	.global _sim_reg_stats
	.proc	020
_sim_reg_stats:
	!#PROLOGUE# 0
	save %sp,-1160,%sp
	!#PROLOGUE# 1
	st %i0,[%fp+68]
	st %g0,[%sp+92]
	ld [%fp+68],%o0
	sethi %hi(LC144),%o2
	or %o2,%lo(LC144),%o1
	sethi %hi(LC145),%o3
	or %o3,%lo(LC145),%o2
	sethi %hi(_sim_num_insn),%o4
	or %o4,%lo(_sim_num_insn),%o3
	mov 0,%o4
	mov 0,%o5
	call _stat_reg_llong,0
	nop
	st %g0,[%sp+92]
	ld [%fp+68],%o0
	sethi %hi(LC146),%o2
	or %o2,%lo(LC146),%o1
	sethi %hi(LC147),%o3
	or %o3,%lo(LC147),%o2
	sethi %hi(_sim_num_refs),%o4
	or %o4,%lo(_sim_num_refs),%o3
	mov 0,%o4
	mov 0,%o5
	call _stat_reg_llong,0
	nop
	st %g0,[%sp+92]
	ld [%fp+68],%o0
	sethi %hi(LC148),%o2
	or %o2,%lo(LC148),%o1
	sethi %hi(LC149),%o3
	or %o3,%lo(LC149),%o2
	sethi %hi(_sim_num_loads),%o4
	or %o4,%lo(_sim_num_loads),%o3
	mov 0,%o4
	mov 0,%o5
	call _stat_reg_llong,0
	nop
	ld [%fp+68],%o0
	sethi %hi(LC150),%o2
	or %o2,%lo(LC150),%o1
	sethi %hi(LC151),%o3
	or %o3,%lo(LC151),%o2
	sethi %hi(LC152),%o4
	or %o4,%lo(LC152),%o3
	mov 0,%o4
	call _stat_reg_formula,0
	nop
	st %g0,[%sp+92]
	ld [%fp+68],%o0
	sethi %hi(LC153),%o2
	or %o2,%lo(LC153),%o1
	sethi %hi(LC154),%o3
	or %o3,%lo(LC154),%o2
	sethi %hi(_sim_num_branches),%o4
	or %o4,%lo(_sim_num_branches),%o3
	mov 0,%o4
	mov 0,%o5
	call _stat_reg_llong,0
	nop
	ld [%fp+68],%o0
	sethi %hi(LC155),%o2
	or %o2,%lo(LC155),%o1
	sethi %hi(LC156),%o3
	or %o3,%lo(LC156),%o2
	sethi %hi(_sim_elapsed_time),%o4
	or %o4,%lo(_sim_elapsed_time),%o3
	mov 0,%o4
	mov 0,%o5
	call _stat_reg_int,0
	nop
	ld [%fp+68],%o0
	sethi %hi(LC157),%o2
	or %o2,%lo(LC157),%o1
	sethi %hi(LC158),%o3
	or %o3,%lo(LC158),%o2
	sethi %hi(LC159),%o4
	or %o4,%lo(LC159),%o3
	mov 0,%o4
	call _stat_reg_formula,0
	nop
	st %g0,[%sp+92]
	ld [%fp+68],%o0
	sethi %hi(LC160),%o2
	or %o2,%lo(LC160),%o1
	sethi %hi(LC161),%o3
	or %o3,%lo(LC161),%o2
	sethi %hi(_sim_total_insn),%o4
	or %o4,%lo(_sim_total_insn),%o3
	mov 0,%o4
	mov 0,%o5
	call _stat_reg_llong,0
	nop
	st %g0,[%sp+92]
	ld [%fp+68],%o0
	sethi %hi(LC162),%o2
	or %o2,%lo(LC162),%o1
	sethi %hi(LC163),%o3
	or %o3,%lo(LC163),%o2
	sethi %hi(_sim_total_refs),%o4
	or %o4,%lo(_sim_total_refs),%o3
	mov 0,%o4
	mov 0,%o5
	call _stat_reg_llong,0
	nop
	st %g0,[%sp+92]
	ld [%fp+68],%o0
	sethi %hi(LC164),%o2
	or %o2,%lo(LC164),%o1
	sethi %hi(LC165),%o3
	or %o3,%lo(LC165),%o2
	sethi %hi(_sim_total_loads),%o4
	or %o4,%lo(_sim_total_loads),%o3
	mov 0,%o4
	mov 0,%o5
	call _stat_reg_llong,0
	nop
	ld [%fp+68],%o0
	sethi %hi(LC166),%o2
	or %o2,%lo(LC166),%o1
	sethi %hi(LC167),%o3
	or %o3,%lo(LC167),%o2
	sethi %hi(LC168),%o4
	or %o4,%lo(LC168),%o3
	mov 0,%o4
	call _stat_reg_formula,0
	nop
	st %g0,[%sp+92]
	ld [%fp+68],%o0
	sethi %hi(LC169),%o2
	or %o2,%lo(LC169),%o1
	sethi %hi(LC170),%o3
	or %o3,%lo(LC170),%o2
	sethi %hi(_sim_total_branches),%o4
	or %o4,%lo(_sim_total_branches),%o3
	mov 0,%o4
	mov 0,%o5
	call _stat_reg_llong,0
	nop
	st %g0,[%sp+92]
	ld [%fp+68],%o0
	sethi %hi(LC171),%o2
	or %o2,%lo(LC171),%o1
	sethi %hi(LC172),%o3
	or %o3,%lo(LC172),%o2
	sethi %hi(_sim_cycle),%o4
	or %o4,%lo(_sim_cycle),%o3
	mov 0,%o4
	mov 0,%o5
	call _stat_reg_llong,0
	nop
	ld [%fp+68],%o0
	sethi %hi(LC173),%o2
	or %o2,%lo(LC173),%o1
	sethi %hi(LC174),%o3
	or %o3,%lo(LC174),%o2
	sethi %hi(LC175),%o4
	or %o4,%lo(LC175),%o3
	mov 0,%o4
	call _stat_reg_formula,0
	nop
	ld [%fp+68],%o0
	sethi %hi(LC176),%o2
	or %o2,%lo(LC176),%o1
	sethi %hi(LC177),%o3
	or %o3,%lo(LC177),%o2
	sethi %hi(LC178),%o4
	or %o4,%lo(LC178),%o3
	mov 0,%o4
	call _stat_reg_formula,0
	nop
	ld [%fp+68],%o0
	sethi %hi(LC179),%o2
	or %o2,%lo(LC179),%o1
	sethi %hi(LC180),%o3
	or %o3,%lo(LC180),%o2
	sethi %hi(LC181),%o4
	or %o4,%lo(LC181),%o3
	mov 0,%o4
	call _stat_reg_formula,0
	nop
	ld [%fp+68],%o0
	sethi %hi(LC182),%o2
	or %o2,%lo(LC182),%o1
	sethi %hi(LC183),%o3
	or %o3,%lo(LC183),%o2
	sethi %hi(LC184),%o4
	or %o4,%lo(LC184),%o3
	mov 0,%o4
	call _stat_reg_formula,0
	nop
	sethi %hi(_pred),%o0
	ld [%o0+%lo(_pred)],%o1
	cmp %o1,0
	be L113
	nop
	sethi %hi(_pred),%o1
	ld [%o1+%lo(_pred)],%o0
	ld [%fp+68],%o1
	call _bpred_reg_stats,0
	nop
L113:
	sethi %hi(_cache_il1),%o0
	ld [%o0+%lo(_cache_il1)],%o1
	cmp %o1,0
	be L114
	nop
	sethi %hi(_cache_il1),%o0
	sethi %hi(_cache_dl1),%o1
	ld [%o0+%lo(_cache_il1)],%o0
	ld [%o1+%lo(_cache_dl1)],%o1
	cmp %o0,%o1
	be L114
	nop
	sethi %hi(_cache_il1),%o0
	sethi %hi(_cache_dl2),%o1
	ld [%o0+%lo(_cache_il1)],%o0
	ld [%o1+%lo(_cache_dl2)],%o1
	cmp %o0,%o1
	be L114
	nop
	sethi %hi(_cache_il1),%o1
	ld [%o1+%lo(_cache_il1)],%o0
	ld [%fp+68],%o1
	call _cache_reg_stats,0
	nop
L114:
	sethi %hi(_cache_il2),%o0
	ld [%o0+%lo(_cache_il2)],%o1
	cmp %o1,0
	be L115
	nop
	sethi %hi(_cache_il2),%o0
	sethi %hi(_cache_dl1),%o1
	ld [%o0+%lo(_cache_il2)],%o0
	ld [%o1+%lo(_cache_dl1)],%o1
	cmp %o0,%o1
	be L115
	nop
	sethi %hi(_cache_il2),%o0
	sethi %hi(_cache_dl2),%o1
	ld [%o0+%lo(_cache_il2)],%o0
	ld [%o1+%lo(_cache_dl2)],%o1
	cmp %o0,%o1
	be L115
	nop
	sethi %hi(_cache_il2),%o1
	ld [%o1+%lo(_cache_il2)],%o0
	ld [%fp+68],%o1
	call _cache_reg_stats,0
	nop
L115:
	sethi %hi(_cache_dl1),%o0
	ld [%o0+%lo(_cache_dl1)],%o1
	cmp %o1,0
	be L116
	nop
	sethi %hi(_cache_dl1),%o1
	ld [%o1+%lo(_cache_dl1)],%o0
	ld [%fp+68],%o1
	call _cache_reg_stats,0
	nop
L116:
	sethi %hi(_cache_dl2),%o0
	ld [%o0+%lo(_cache_dl2)],%o1
	cmp %o1,0
	be L117
	nop
	sethi %hi(_cache_dl2),%o1
	ld [%o1+%lo(_cache_dl2)],%o0
	ld [%fp+68],%o1
	call _cache_reg_stats,0
	nop
L117:
	sethi %hi(_itlb),%o0
	ld [%o0+%lo(_itlb)],%o1
	cmp %o1,0
	be L118
	nop
	sethi %hi(_itlb),%o1
	ld [%o1+%lo(_itlb)],%o0
	ld [%fp+68],%o1
	call _cache_reg_stats,0
	nop
L118:
	sethi %hi(_dtlb),%o0
	ld [%o0+%lo(_dtlb)],%o1
	cmp %o1,0
	be L119
	nop
	sethi %hi(_dtlb),%o1
	ld [%o1+%lo(_dtlb)],%o0
	ld [%fp+68],%o1
	call _cache_reg_stats,0
	nop
L119:
	nop
	st %g0,[%fp-20]
L120:
	sethi %hi(_pcstat_nelt),%o0
	ld [%fp-20],%o1
	ld [%o0+%lo(_pcstat_nelt)],%o0
	cmp %o1,%o0
	bge L121
	nop
	ld [%fp-20],%o0
	mov %o0,%o2
	sll %o2,2,%o1
	sethi %hi(_pcstat_vars),%o0
	or %o0,%lo(_pcstat_vars),%o2
	ld [%fp+68],%o0
	ld [%o1+%o2],%o1
	call _stat_find_stat,0
	nop
	st %o0,[%fp-1052]
	ld [%fp-1052],%o0
	cmp %o0,0
	bne L123
	nop
	ld [%fp-20],%o0
	mov %o0,%o1
	sll %o1,2,%o4
	sethi %hi(_pcstat_vars),%o0
	or %o0,%lo(_pcstat_vars),%o5
	sethi %hi(LC6),%o1
	or %o1,%lo(LC6),%o0
	sethi %hi(LC185),%o2
	or %o2,%lo(LC185),%o1
	mov 1154,%o2
	sethi %hi(LC186),%g2
	or %g2,%lo(LC186),%o3
	ld [%o4+%o5],%o4
	call __fatal,0
	nop
L123:
	ld [%fp-1052],%o0
	ld [%o0+16],%o1
	cmp %o1,0
	be L124
	nop
	ld [%fp-1052],%o0
	ld [%o0+16],%o1
	cmp %o1,1
	be L124
	nop
	ld [%fp-1052],%o0
	ld [%o0+16],%o1
	cmp %o1,2
	be L124
	nop
	ld [%fp-1052],%o4
	sethi %hi(LC6),%o1
	or %o1,%lo(LC6),%o0
	sethi %hi(LC185),%o2
	or %o2,%lo(LC185),%o1
	mov 1159,%o2
	sethi %hi(LC187),%o5
	or %o5,%lo(LC187),%o3
	ld [%o4+4],%o4
	call __fatal,0
	nop
L124:
	ld [%fp-20],%o0
	mov %o0,%o1
	sll %o1,2,%o0
	sethi %hi(_pcstat_stats),%o2
	or %o2,%lo(_pcstat_stats),%o1
	ld [%fp-1052],%o2
	st %o2,[%o0+%o1]
	ld [%fp-20],%o0
	mov %o0,%o1
	sll %o1,3,%l0
	sethi %hi(_pcstat_lastvals),%o0
	or %o0,%lo(_pcstat_lastvals),%l1
	ld [%fp-1052],%o0
	ld [%o0+16],%o1
	cmp %o1,0
	bne L125
	nop
	ld [%fp-1052],%o1
	ld [%o1+24],%o0
	ld [%o0],%o2
	sra %o2,31,%o1
	ld [%o0],%l3
	mov %o1,%l2
	b L126
	nop
L125:
	ld [%fp-1052],%o0
	ld [%o0+16],%o1
	cmp %o1,1
	bne L127
	nop
	ld [%fp-1052],%o0
	ld [%o0+24],%o1
	ld [%o1],%l3
	mov 0,%l2
	b L128
	nop
L127:
	ld [%fp-1052],%o0
	ld [%o0+16],%o1
	cmp %o1,2
	bne L129
	nop
	ld [%fp-1052],%o0
	ld [%o0+24],%o1
	ldd [%o1],%l2
	b L130
	nop
L129:
	sethi %hi(LC6),%o1
	or %o1,%lo(LC6),%o0
	sethi %hi(LC185),%o2
	or %o2,%lo(LC185),%o1
	mov 1163,%o2
	sethi %hi(LC188),%o4
	or %o4,%lo(LC188),%o3
	call __panic,0
	nop
	mov 0,%l2
	mov 0,%l3
L130:
L128:
L126:
	std %l2,[%l0+%l1]
	add %fp,-536,%o0
	ld [%fp-1052],%o2
	sethi %hi(LC189),%o3
	or %o3,%lo(LC189),%o1
	ld [%o2+4],%o2
	call _sprintf,0
	nop
	add %fp,-1048,%o0
	ld [%fp-1052],%o2
	sethi %hi(LC190),%o3
	or %o3,%lo(LC190),%o1
	ld [%o2+8],%o2
	call _sprintf,0
	nop
	add %fp,-536,%o1
	add %fp,-1048,%o2
	st %g0,[%sp+92]
	ld [%fp+68],%o0
	mov 0,%o3
	mov 3,%o4
	sethi %hi(LC191),%g2
	or %g2,%lo(LC191),%o5
	call _stat_reg_sdist,0
	nop
	ld [%fp-20],%o1
	mov %o1,%o2
	sll %o2,2,%o1
	sethi %hi(_pcstat_sdists),%o3
	or %o3,%lo(_pcstat_sdists),%o2
	st %o0,[%o1+%o2]
L122:
	ld [%fp-20],%o1
	add %o1,1,%o0
	mov %o0,%o1
	st %o1,[%fp-20]
	b L120
	nop
L121:
L112:
	ret
	restore
	.align 8
LC192:
	.ascii "sim_init\0"
	.align 8
LC193:
	.ascii "bad pipetrace args, use: <fname|stdout|stderr> <range>\0"
	.align 8
LC194:
	.ascii "cannot do fast decoding, too many opcodes\0"
	.align 8
LC195:
	.ascii "fu-pool\0"
	.align 4
	.global _sim_init
	.proc	020
_sim_init:
	!#PROLOGUE# 0
	save %sp,-128,%sp
	!#PROLOGUE# 1
	sethi %hi(_sim_num_insn),%o0
	mov 0,%g2
	mov 0,%g3
	std %g2,[%o0+%lo(_sim_num_insn)]
	sethi %hi(_sim_num_refs),%o0
	mov 0,%g2
	mov 0,%g3
	std %g2,[%o0+%lo(_sim_num_refs)]
	sethi %hi(_ptrace_nelt),%o0
	ld [%o0+%lo(_ptrace_nelt)],%o1
	cmp %o1,2
	bne L132
	nop
	sethi %hi(_ptrace_opts),%o0
	sethi %hi(_ptrace_opts+4),%o1
	ld [%o0+%lo(_ptrace_opts)],%o0
	ld [%o1+%lo(_ptrace_opts+4)],%o1
	call _ptrace_open,0
	nop
	b L133
	nop
L132:
	sethi %hi(_ptrace_nelt),%o0
	ld [%o0+%lo(_ptrace_nelt)],%o1
	cmp %o1,0
	bne L134
	nop
	b L135
	nop
L134:
	sethi %hi(LC6),%o1
	or %o1,%lo(LC6),%o0
	sethi %hi(LC192),%o2
	or %o2,%lo(LC192),%o1
	mov 1226,%o2
	sethi %hi(LC193),%o4
	or %o4,%lo(LC193),%o3
	call __fatal,0
	nop
L135:
L133:
	b L136
	nop
	sethi %hi(LC6),%o1
	or %o1,%lo(LC6),%o0
	sethi %hi(LC192),%o2
	or %o2,%lo(LC192),%o1
	mov 1234,%o2
	sethi %hi(LC194),%o4
	or %o4,%lo(LC194),%o3
	call __fatal,0
	nop
L136:
	nop
	sethi %hi(_ld_text_base),%o0
	ld [%o0+%lo(_ld_text_base)],%o1
	st %o1,[%fp-20]
L137:
	sethi %hi(_ld_text_base),%o0
	sethi %hi(_ld_text_size),%o1
	ld [%o0+%lo(_ld_text_base)],%o0
	ld [%o1+%lo(_ld_text_size)],%o1
	add %o0,%o1,%o0
	ld [%fp-20],%o1
	cmp %o1,%o0
	bgeu L138
	nop
	ld [%fp-20],%o1
	srl %o1,16,%o0
	sethi %hi(32767),%o2
	or %o2,%lo(32767),%o1
	and %o0,%o1,%o0
	mov %o0,%o1
	sll %o1,2,%o0
	sethi %hi(_mem_table),%o2
	or %o2,%lo(_mem_table),%o1
	ld [%fp-20],%o2
	sethi %hi(65535),%o4
	or %o4,%lo(65535),%o3
	and %o2,%o3,%o2
	ld [%o0+%o1],%o1
	add %o2,%o1,%o0
	ld [%o0],%o1
	st %o1,[%fp-32]
	ld [%o0+4],%o0
	st %o0,[%fp-28]
	ld [%fp-32],%o1
	and %o1,-256,%o0
	ld [%fp-32],%o2
	and %o2,255,%o1
	mov %o1,%o2
	sll %o2,2,%o1
	sethi %hi(_ss_mask2op),%o3
	or %o3,%lo(_ss_mask2op),%o2
	ld [%o1+%o2],%o1
	or %o0,%o1,%o0
	st %o0,[%fp-32]
	ld [%fp-20],%o1
	srl %o1,16,%o0
	sethi %hi(32767),%o2
	or %o2,%lo(32767),%o1
	and %o0,%o1,%o0
	mov %o0,%o1
	sll %o1,2,%o0
	sethi %hi(_mem_table),%o2
	or %o2,%lo(_mem_table),%o1
	ld [%fp-20],%o2
	sethi %hi(65535),%o4
	or %o4,%lo(65535),%o3
	and %o2,%o3,%o2
	ld [%o0+%o1],%o1
	add %o2,%o1,%o0
	ld [%fp-32],%o1
	st %o1,[%o0]
	ld [%fp-28],%o1
	st %o1,[%o0+4]
L139:
	ld [%fp-20],%o0
	add %o0,8,%o1
	st %o1,[%fp-20]
	b L137
	nop
L138:
	sethi %hi(LC195),%o1
	or %o1,%lo(LC195),%o0
	sethi %hi(_fu_config),%o2
	or %o2,%lo(_fu_config),%o1
	mov 5,%o2
	call _res_create_pool,0
	nop
	sethi %hi(_fu_pool),%o1
	st %o0,[%o1+%lo(_fu_pool)]
	mov 2048,%o0
	call _rslink_init,0
	nop
	call _tracer_init,0
	nop
	call _fetch_init,0
	nop
	call _cv_init,0
	nop
	call _eventq_init,0
	nop
	call _readyq_init,0
	nop
	call _ruu_init,0
	nop
	call _lsq_init,0
	nop
	sethi %hi(_simoo_reg_obj),%o1
	or %o1,%lo(_simoo_reg_obj),%o0
	sethi %hi(_simoo_mem_obj),%o2
	or %o2,%lo(_simoo_mem_obj),%o1
	sethi %hi(_simoo_mstate_obj),%o3
	or %o3,%lo(_simoo_mstate_obj),%o2
	call _dlite_init,0
	nop
L131:
	ret
	restore
	.align 4
	.global _sim_aux_stats
	.proc	020
_sim_aux_stats:
	!#PROLOGUE# 0
	save %sp,-112,%sp
	!#PROLOGUE# 1
	st %i0,[%fp+68]
L140:
	ret
	restore
	.align 4
	.global _sim_uninit
	.proc	020
_sim_uninit:
	!#PROLOGUE# 0
	save %sp,-112,%sp
	!#PROLOGUE# 1
	sethi %hi(_ptrace_nelt),%o0
	ld [%o0+%lo(_ptrace_nelt)],%o1
	cmp %o1,0
	ble L142
	nop
	call _ptrace_close,0
	nop
L142:
L141:
	ret
	restore
	.align 8
LC196:
	.ascii "ruu_init\0"
	.align 8
LC197:
	.ascii "out of virtual memory\0"
	.align 4
	.proc	020
_ruu_init:
	!#PROLOGUE# 0
	save %sp,-112,%sp
	!#PROLOGUE# 1
	sethi %hi(_RUU),%l0
	sethi %hi(_RUU_size),%o1
	ld [%o1+%lo(_RUU_size)],%o0
	mov 96,%o1
	call _calloc,0
	nop
	st %o0,[%l0+%lo(_RUU)]
	sethi %hi(_RUU),%o0
	ld [%o0+%lo(_RUU)],%o1
	cmp %o1,0
	bne L144
	nop
	sethi %hi(LC6),%o1
	or %o1,%lo(LC6),%o0
	sethi %hi(LC196),%o2
	or %o2,%lo(LC196),%o1
	mov 1362,%o2
	sethi %hi(LC197),%o4
	or %o4,%lo(LC197),%o3
	call __fatal,0
	nop
L144:
	sethi %hi(_RUU_num),%o0
	st %g0,[%o0+%lo(_RUU_num)]
	sethi %hi(_RUU_head),%o0
	sethi %hi(_RUU_tail),%o1
	st %g0,[%o1+%lo(_RUU_tail)]
	st %g0,[%o0+%lo(_RUU_head)]
L143:
	ret
	restore
	.align 8
LC198:
	.ascii "idx: %2d: opcode: %s, inst: `\0"
	.align 8
LC199:
	.ascii "       opcode: %s, inst: `\0"
	.align 8
LC200:
	.ascii "'\12\0"
	.align 8
LC201:
	.ascii "         PC: 0x%08x, NPC: 0x%08x (pred_PC: 0x%08x)\12\0"
	.align 8
LC202:
	.ascii "         in_LSQ: %s, ea_comp: %s, recover_inst: %s\12\0"
	.align 8
LC203:
	.ascii "t\0"
	.align 8
LC204:
	.ascii "f\0"
	.align 8
LC205:
	.ascii "         spec_mode: %s, addr: 0x%08x, tag: 0x%08x\12\0"
	.align 8
LC206:
	.ascii "         seq: 0x%08x, ptrace_seq: 0x%08x\12\0"
	.align 8
LC207:
	.ascii "         queued: %s, issued: %s, completed: %s\12\0"
	.align 8
LC208:
	.ascii "         operands ready: %s\12\0"
	.align 4
	.proc	020
_ruu_dumpent:
	!#PROLOGUE# 0
	save %sp,-120,%sp
	!#PROLOGUE# 1
	st %i0,[%fp+68]
	st %i1,[%fp+72]
	st %i2,[%fp+76]
	st %i3,[%fp+80]
	ld [%fp+80],%o0
	cmp %o0,0
	be L146
	nop
	ld [%fp+68],%o0
	ld [%o0+8],%o1
	mov %o1,%o0
	sll %o0,2,%o3
	sethi %hi(_ss_op2name),%o0
	or %o0,%lo(_ss_op2name),%o4
	ld [%fp+76],%o0
	sethi %hi(LC198),%o2
	or %o2,%lo(LC198),%o1
	ld [%fp+72],%o2
	ld [%o3+%o4],%o3
	call _fprintf,0
	nop
	b L147
	nop
L146:
	ld [%fp+68],%o0
	ld [%o0+8],%o1
	mov %o1,%o0
	sll %o0,2,%o2
	sethi %hi(_ss_op2name),%o0
	or %o0,%lo(_ss_op2name),%o3
	ld [%fp+76],%o0
	sethi %hi(LC199),%o4
	or %o4,%lo(LC199),%o1
	ld [%o2+%o3],%o2
	call _fprintf,0
	nop
L147:
	ld [%fp+68],%o0
	ld [%o0],%o1
	st %o1,[%fp-24]
	ld [%o0+4],%o0
	st %o0,[%fp-20]
	add %fp,-24,%o0
	ld [%fp+68],%o1
	ld [%o1+12],%o1
	ld [%fp+76],%o2
	call _ss_print_insn,0
	nop
	ld [%fp+76],%o0
	sethi %hi(LC200),%o2
	or %o2,%lo(LC200),%o1
	call _fprintf,0
	nop
	ld [%fp+68],%o2
	ld [%fp+68],%o3
	ld [%fp+68],%o4
	ld [%fp+76],%o0
	sethi %hi(LC201),%o5
	or %o5,%lo(LC201),%o1
	ld [%o2+12],%o2
	ld [%o3+16],%o3
	ld [%o4+20],%o4
	call _fprintf,0
	nop
	ld [%fp+68],%o0
	ld [%o0+24],%o1
	cmp %o1,0
	be L148
	nop
	sethi %hi(LC203),%o0
	or %o0,%lo(LC203),%o2
	b L149
	nop
L148:
	sethi %hi(LC204),%o0
	or %o0,%lo(LC204),%o2
L149:
	ld [%fp+68],%o0
	ld [%o0+28],%o1
	cmp %o1,0
	be L150
	nop
	sethi %hi(LC203),%o0
	or %o0,%lo(LC203),%o3
	b L151
	nop
L150:
	sethi %hi(LC204),%o0
	or %o0,%lo(LC204),%o3
L151:
	ld [%fp+68],%o0
	ld [%o0+32],%o1
	cmp %o1,0
	be L152
	nop
	sethi %hi(LC203),%o0
	or %o0,%lo(LC203),%o4
	b L153
	nop
L152:
	sethi %hi(LC204),%o0
	or %o0,%lo(LC204),%o4
L153:
	ld [%fp+76],%o0
	sethi %hi(LC202),%o5
	or %o5,%lo(LC202),%o1
	call _fprintf,0
	nop
	ld [%fp+68],%o0
	ld [%o0+36],%o1
	cmp %o1,0
	be L154
	nop
	sethi %hi(LC203),%o0
	or %o0,%lo(LC203),%o2
	b L155
	nop
L154:
	sethi %hi(LC204),%o0
	or %o0,%lo(LC204),%o2
L155:
	ld [%fp+68],%o3
	ld [%fp+68],%o4
	ld [%fp+76],%o0
	sethi %hi(LC205),%o5
	or %o5,%lo(LC205),%o1
	ld [%o3+40],%o3
	ld [%o4+44],%o4
	call _fprintf,0
	nop
	ld [%fp+68],%o2
	ld [%fp+68],%o3
	ld [%fp+76],%o0
	sethi %hi(LC206),%o4
	or %o4,%lo(LC206),%o1
	ld [%o2+48],%o2
	ld [%o3+52],%o3
	call _fprintf,0
	nop
	ld [%fp+68],%o0
	ld [%o0+56],%o1
	cmp %o1,0
	be L156
	nop
	sethi %hi(LC203),%o0
	or %o0,%lo(LC203),%o2
	b L157
	nop
L156:
	sethi %hi(LC204),%o0
	or %o0,%lo(LC204),%o2
L157:
	ld [%fp+68],%o0
	ld [%o0+60],%o1
	cmp %o1,0
	be L158
	nop
	sethi %hi(LC203),%o0
	or %o0,%lo(LC203),%o3
	b L159
	nop
L158:
	sethi %hi(LC204),%o0
	or %o0,%lo(LC204),%o3
L159:
	ld [%fp+68],%o0
	ld [%o0+64],%o1
	cmp %o1,0
	be L160
	nop
	sethi %hi(LC203),%o0
	or %o0,%lo(LC203),%o4
	b L161
	nop
L160:
	sethi %hi(LC204),%o0
	or %o0,%lo(LC204),%o4
L161:
	ld [%fp+76],%o0
	sethi %hi(LC207),%o5
	or %o5,%lo(LC207),%o1
	call _fprintf,0
	nop
	ld [%fp+68],%o0
	ld [%o0+84],%o1
	cmp %o1,0
	be L162
	nop
	ld [%fp+68],%o0
	ld [%o0+88],%o1
	cmp %o1,0
	be L162
	nop
	ld [%fp+68],%o0
	ld [%o0+92],%o1
	cmp %o1,0
	be L162
	nop
	sethi %hi(LC203),%o0
	or %o0,%lo(LC203),%o2
	b L163
	nop
L162:
	sethi %hi(LC204),%o0
	or %o0,%lo(LC204),%o2
L163:
	ld [%fp+76],%o0
	sethi %hi(LC208),%o3
	or %o3,%lo(LC208),%o1
	call _fprintf,0
	nop
L145:
	ret
	restore
	.align 8
LC209:
	.ascii "** RUU state **\12\0"
	.align 8
LC210:
	.ascii "RUU_head: %d, RUU_tail: %d\12\0"
	.align 8
LC211:
	.ascii "RUU_num: %d\12\0"
	.align 4
	.proc	020
_ruu_dump:
	!#PROLOGUE# 0
	save %sp,-128,%sp
	!#PROLOGUE# 1
	st %i0,[%fp+68]
	ld [%fp+68],%o0
	sethi %hi(LC209),%o2
	or %o2,%lo(LC209),%o1
	call _fprintf,0
	nop
	sethi %hi(_RUU_head),%o2
	sethi %hi(_RUU_tail),%o3
	ld [%fp+68],%o0
	sethi %hi(LC210),%o4
	or %o4,%lo(LC210),%o1
	ld [%o2+%lo(_RUU_head)],%o2
	ld [%o3+%lo(_RUU_tail)],%o3
	call _fprintf,0
	nop
	sethi %hi(_RUU_num),%o2
	ld [%fp+68],%o0
	sethi %hi(LC211),%o3
	or %o3,%lo(LC211),%o1
	ld [%o2+%lo(_RUU_num)],%o2
	call _fprintf,0
	nop
	sethi %hi(_RUU_num),%o0
	ld [%o0+%lo(_RUU_num)],%o1
	st %o1,[%fp-20]
	sethi %hi(_RUU_head),%o0
	ld [%o0+%lo(_RUU_head)],%o1
	st %o1,[%fp-24]
L165:
	ld [%fp-20],%o0
	cmp %o0,0
	be L166
	nop
	sethi %hi(_RUU),%o0
	ld [%fp-24],%o1
	mov %o1,%o3
	sll %o3,1,%o2
	add %o2,%o1,%o2
	sll %o2,5,%o1
	ld [%o0+%lo(_RUU)],%o0
	add %o0,%o1,%o1
	st %o1,[%fp-28]
	sethi %hi(_RUU),%o0
	ld [%fp-28],%o1
	ld [%o0+%lo(_RUU)],%o0
	sub %o1,%o0,%o1
	mov %o1,%o0
	mov 96,%o1
	call .div,0
	nop
	mov %o0,%o1
	ld [%fp-28],%o0
	ld [%fp+68],%o2
	mov 1,%o3
	call _ruu_dumpent,0
	nop
	ld [%fp-24],%o1
	add %o1,1,%o0
	sethi %hi(_RUU_size),%o1
	ld [%o1+%lo(_RUU_size)],%o1
	call .rem,0
	nop
	st %o0,[%fp-24]
	ld [%fp-20],%o1
	add %o1,-1,%o0
	mov %o0,%o1
	st %o1,[%fp-20]
	b L165
	nop
L166:
L164:
	ret
	restore
	.align 8
LC212:
	.ascii "lsq_init\0"
	.align 4
	.proc	020
_lsq_init:
	!#PROLOGUE# 0
	save %sp,-112,%sp
	!#PROLOGUE# 1
	sethi %hi(_LSQ),%l0
	sethi %hi(_LSQ_size),%o1
	ld [%o1+%lo(_LSQ_size)],%o0
	mov 96,%o1
	call _calloc,0
	nop
	st %o0,[%l0+%lo(_LSQ)]
	sethi %hi(_LSQ),%o0
	ld [%o0+%lo(_LSQ)],%o1
	cmp %o1,0
	bne L168
	nop
	sethi %hi(LC6),%o1
	or %o1,%lo(LC6),%o0
	sethi %hi(LC212),%o2
	or %o2,%lo(LC212),%o1
	mov 1472,%o2
	sethi %hi(LC197),%o4
	or %o4,%lo(LC197),%o3
	call __fatal,0
	nop
L168:
	sethi %hi(_LSQ_num),%o0
	st %g0,[%o0+%lo(_LSQ_num)]
	sethi %hi(_LSQ_head),%o0
	sethi %hi(_LSQ_tail),%o1
	st %g0,[%o1+%lo(_LSQ_tail)]
	st %g0,[%o0+%lo(_LSQ_head)]
L167:
	ret
	restore
	.align 8
LC213:
	.ascii "** LSQ state **\12\0"
	.align 8
LC214:
	.ascii "LSQ_head: %d, LSQ_tail: %d\12\0"
	.align 8
LC215:
	.ascii "LSQ_num: %d\12\0"
	.align 4
	.proc	020
_lsq_dump:
	!#PROLOGUE# 0
	save %sp,-128,%sp
	!#PROLOGUE# 1
	st %i0,[%fp+68]
	ld [%fp+68],%o0
	sethi %hi(LC213),%o2
	or %o2,%lo(LC213),%o1
	call _fprintf,0
	nop
	sethi %hi(_LSQ_head),%o2
	sethi %hi(_LSQ_tail),%o3
	ld [%fp+68],%o0
	sethi %hi(LC214),%o4
	or %o4,%lo(LC214),%o1
	ld [%o2+%lo(_LSQ_head)],%o2
	ld [%o3+%lo(_LSQ_tail)],%o3
	call _fprintf,0
	nop
	sethi %hi(_LSQ_num),%o2
	ld [%fp+68],%o0
	sethi %hi(LC215),%o3
	or %o3,%lo(LC215),%o1
	ld [%o2+%lo(_LSQ_num)],%o2
	call _fprintf,0
	nop
	sethi %hi(_LSQ_num),%o0
	ld [%o0+%lo(_LSQ_num)],%o1
	st %o1,[%fp-20]
	sethi %hi(_LSQ_head),%o0
	ld [%o0+%lo(_LSQ_head)],%o1
	st %o1,[%fp-24]
L170:
	ld [%fp-20],%o0
	cmp %o0,0
	be L171
	nop
	sethi %hi(_LSQ),%o0
	ld [%fp-24],%o1
	mov %o1,%o3
	sll %o3,1,%o2
	add %o2,%o1,%o2
	sll %o2,5,%o1
	ld [%o0+%lo(_LSQ)],%o0
	add %o0,%o1,%o1
	st %o1,[%fp-28]
	sethi %hi(_LSQ),%o0
	ld [%fp-28],%o1
	ld [%o0+%lo(_LSQ)],%o0
	sub %o1,%o0,%o1
	mov %o1,%o0
	mov 96,%o1
	call .div,0
	nop
	mov %o0,%o1
	ld [%fp-28],%o0
	ld [%fp+68],%o2
	mov 1,%o3
	call _ruu_dumpent,0
	nop
	ld [%fp-24],%o1
	add %o1,1,%o0
	sethi %hi(_LSQ_size),%o1
	ld [%o1+%lo(_LSQ_size)],%o1
	call .rem,0
	nop
	st %o0,[%fp-24]
	ld [%fp-20],%o1
	add %o1,-1,%o0
	mov %o0,%o1
	st %o1,[%fp-20]
	b L170
	nop
L171:
L169:
	ret
	restore
.data
	.align 8
_RSLINK_NULL:
	.word	0
	.word	0
	.word	0
	.skip 12
.text
	.align 8
LC216:
	.ascii "rslink_init\0"
	.align 4
	.proc	020
_rslink_init:
	!#PROLOGUE# 0
	save %sp,-120,%sp
	!#PROLOGUE# 1
	st %i0,[%fp+68]
	sethi %hi(_rslink_free_list),%o0
	st %g0,[%o0+%lo(_rslink_free_list)]
	st %g0,[%fp-20]
L173:
	ld [%fp-20],%o0
	ld [%fp+68],%o1
	cmp %o0,%o1
	bge L174
	nop
	mov 1,%o0
	mov 24,%o1
	call _calloc,0
	nop
	st %o0,[%fp-24]
	ld [%fp-24],%o0
	cmp %o0,0
	bne L176
	nop
	sethi %hi(LC6),%o1
	or %o1,%lo(LC6),%o0
	sethi %hi(LC216),%o2
	or %o2,%lo(LC216),%o1
	mov 1587,%o2
	sethi %hi(LC197),%o4
	or %o4,%lo(LC197),%o3
	call __fatal,0
	nop
L176:
	ld [%fp-24],%o0
	sethi %hi(_rslink_free_list),%o1
	ld [%o1+%lo(_rslink_free_list)],%o2
	st %o2,[%o0]
	sethi %hi(_rslink_free_list),%o0
	ld [%fp-24],%o1
	st %o1,[%o0+%lo(_rslink_free_list)]
L175:
	ld [%fp-20],%o1
	add %o1,1,%o0
	mov %o0,%o1
	st %o1,[%fp-20]
	b L173
	nop
L174:
L172:
	ret
	restore
	.align 4
	.proc	020
_ruu_release_fu:
	!#PROLOGUE# 0
	save %sp,-120,%sp
	!#PROLOGUE# 1
	nop
	st %g0,[%fp-20]
L178:
	sethi %hi(_fu_pool),%o1
	ld [%o1+%lo(_fu_pool)],%o0
	ld [%fp-20],%o1
	ld [%o0+4],%o0
	cmp %o1,%o0
	bge L179
	nop
	sethi %hi(_fu_pool),%o1
	ld [%o1+%lo(_fu_pool)],%o0
	ld [%fp-20],%o1
	mov %o1,%o3
	sll %o3,4,%o2
	add %o2,%o1,%o2
	sll %o2,2,%o3
	sub %o3,%o1,%o3
	sll %o3,2,%o1
	ld [%o0+8],%o2
	add %o1,%o2,%o0
	ld [%o0+8],%o1
	cmp %o1,0
	ble L181
	nop
	sethi %hi(_fu_pool),%o1
	ld [%o1+%lo(_fu_pool)],%o0
	ld [%fp-20],%o1
	mov %o1,%o3
	sll %o3,4,%o2
	add %o2,%o1,%o2
	sll %o2,2,%o3
	sub %o3,%o1,%o3
	sll %o3,2,%o1
	ld [%o0+8],%o2
	add %o1,%o2,%o0
	sethi %hi(_fu_pool),%o1
	ld [%o1+%lo(_fu_pool)],%o0
	ld [%fp-20],%o1
	mov %o1,%o3
	sll %o3,4,%o2
	add %o2,%o1,%o2
	sll %o2,2,%o3
	sub %o3,%o1,%o3
	sll %o3,2,%o1
	ld [%o0+8],%o2
	add %o1,%o2,%o0
	sethi %hi(_fu_pool),%o2
	ld [%o2+%lo(_fu_pool)],%o1
	ld [%fp-20],%o2
	mov %o2,%o4
	sll %o4,4,%o3
	add %o3,%o2,%o3
	sll %o3,2,%o4
	sub %o4,%o2,%o4
	sll %o4,2,%o2
	ld [%o1+8],%o3
	add %o2,%o3,%o1
	ld [%o1+8],%o2
	add %o2,-1,%o1
	mov %o1,%o2
	st %o2,[%o0+8]
L181:
L180:
	ld [%fp-20],%o1
	add %o1,1,%o0
	mov %o0,%o1
	st %o1,[%fp-20]
	b L178
	nop
L179:
L177:
	ret
	restore
	.align 4
	.proc	020
_eventq_init:
	!#PROLOGUE# 0
	save %sp,-112,%sp
	!#PROLOGUE# 1
	sethi %hi(_event_queue),%o0
	st %g0,[%o0+%lo(_event_queue)]
L182:
	ret
	restore
	.align 8
LC217:
	.ascii "** event queue state **\12\0"
	.align 8
LC218:
	.ascii "idx: %2d: @ %.0f\12\0"
	.align 4
	.proc	020
_eventq_dump:
	!#PROLOGUE# 0
	save %sp,-120,%sp
	!#PROLOGUE# 1
	st %i0,[%fp+68]
	ld [%fp+68],%o0
	sethi %hi(LC217),%o2
	or %o2,%lo(LC217),%o1
	call _fprintf,0
	nop
	sethi %hi(_event_queue),%o0
	ld [%o0+%lo(_event_queue)],%o1
	st %o1,[%fp-20]
L184:
	ld [%fp-20],%o0
	cmp %o0,0
	be L185
	nop
	ld [%fp-20],%o0
	ld [%fp-20],%o1
	ld [%o1+4],%o2
	ld [%o0+8],%o0
	ld [%o2+44],%o1
	cmp %o0,%o1
	bne L187
	nop
	ld [%fp-20],%o0
	ld [%o0+4],%o1
	st %o1,[%fp-24]
	ld [%fp-24],%o0
	ld [%o0+24],%o1
	cmp %o1,0
	be L188
	nop
	sethi %hi(_LSQ),%o0
	ld [%fp-24],%o1
	ld [%o0+%lo(_LSQ)],%o0
	sub %o1,%o0,%l0
	mov %l0,%o0
	mov 96,%o1
	call .div,0
	nop
	mov %o0,%l0
	b L189
	nop
L188:
	sethi %hi(_RUU),%o0
	ld [%fp-24],%o1
	ld [%o0+%lo(_RUU)],%o0
	sub %o1,%o0,%l0
	mov %l0,%o0
	mov 96,%o1
	call .div,0
	nop
	mov %o0,%l0
L189:
	ld [%fp-20],%o2
	ldd [%o2+16],%o0
	call ___floatdidf,0
	nop
	fmovs %f0,%f2
	fmovs %f1,%f3
	std %f2,[%fp-16]
	ldd [%fp-16],%o4
	ld [%fp+68],%o0
	sethi %hi(LC218),%o2
	or %o2,%lo(LC218),%o1
	mov %l0,%o2
	mov %o4,%o3
	mov %o5,%o4
	call _fprintf,0
	nop
	ld [%fp-24],%o0
	ld [%o0+24],%o1
	cmp %o1,0
	be L190
	nop
	sethi %hi(_LSQ),%o0
	ld [%fp-24],%o1
	ld [%o0+%lo(_LSQ)],%o0
	sub %o1,%o0,%l0
	mov %l0,%o0
	mov 96,%o1
	call .div,0
	nop
	mov %o0,%l0
	b L191
	nop
L190:
	sethi %hi(_RUU),%o0
	ld [%fp-24],%o1
	ld [%o0+%lo(_RUU)],%o0
	sub %o1,%o0,%l0
	mov %l0,%o0
	mov 96,%o1
	call .div,0
	nop
	mov %o0,%l0
L191:
	ld [%fp-24],%o0
	mov %l0,%o1
	ld [%fp+68],%o2
	mov 0,%o3
	call _ruu_dumpent,0
	nop
L187:
L186:
	ld [%fp-20],%o0
	ld [%o0],%o1
	st %o1,[%fp-20]
	b L184
	nop
L185:
L183:
	ret
	restore
	.align 8
LC219:
	.ascii "eventq_queue_event\0"
	.align 8
LC220:
	.ascii "event completed\0"
	.align 8
LC221:
	.ascii "event occurred in the past\0"
	.align 8
LC222:
	.ascii "out of rs links\0"
	.align 4
	.proc	020
_eventq_queue_event:
	!#PROLOGUE# 0
	save %sp,-136,%sp
	!#PROLOGUE# 1
	st %i0,[%fp+68]
	st %i1,[%fp-24]
	st %i2,[%fp-20]
	ld [%fp+68],%o0
	ld [%o0+64],%o1
	cmp %o1,0
	be L193
	nop
	sethi %hi(LC6),%o1
	or %o1,%lo(LC6),%o0
	sethi %hi(LC219),%o2
	or %o2,%lo(LC219),%o1
	mov 1662,%o2
	sethi %hi(LC220),%o4
	or %o4,%lo(LC220),%o3
	call __panic,0
	nop
L193:
	sethi %hi(_sim_cycle),%o0
	ld [%fp-24],%o1
	ld [%o0+%lo(_sim_cycle)],%o2
	cmp %o1,%o2
	bg L194
	nop
	ld [%fp-24],%o1
	ld [%o0+%lo(_sim_cycle)],%o2
	cmp %o1,%o2
	bne L195
	nop
	mov 4,%o1
	or %o0,%lo(_sim_cycle),%o2
	add %o1,%o2,%o0
	ld [%fp-20],%o1
	ld [%o0],%o2
	cmp %o1,%o2
	bgu L194
	nop
	ld [%fp-20],%o1
	ld [%o0],%o0
	cmp %o1,%o0
	bne L195
	nop
	b L195
	nop
L195:
	sethi %hi(LC6),%o1
	or %o1,%lo(LC6),%o0
	sethi %hi(LC219),%o2
	or %o2,%lo(LC219),%o1
	mov 1665,%o2
	sethi %hi(LC221),%o4
	or %o4,%lo(LC221),%o3
	call __panic,0
	nop
L194:
	sethi %hi(_rslink_free_list),%o0
	ld [%o0+%lo(_rslink_free_list)],%o1
	cmp %o1,0
	bne L196
	nop
	sethi %hi(LC6),%o1
	or %o1,%lo(LC6),%o0
	sethi %hi(LC219),%o2
	or %o2,%lo(LC219),%o1
	mov 1668,%o2
	sethi %hi(LC222),%o4
	or %o4,%lo(LC222),%o3
	call __panic,0
	nop
L196:
	sethi %hi(_rslink_free_list),%o0
	ld [%o0+%lo(_rslink_free_list)],%o1
	st %o1,[%fp-40]
	sethi %hi(_rslink_free_list),%o0
	sethi %hi(_rslink_free_list),%o2
	ld [%o2+%lo(_rslink_free_list)],%o1
	ld [%o1],%o2
	st %o2,[%o0+%lo(_rslink_free_list)]
	ld [%fp-40],%o0
	st %g0,[%o0]
	ld [%fp-40],%o0
	ld [%fp+68],%o1
	st %o1,[%o0+4]
	ld [%fp-40],%o0
	ld [%fp-40],%o1
	ld [%o1+4],%o2
	ld [%o2+44],%o1
	st %o1,[%o0+8]
	ld [%fp-40],%o0
	st %o0,[%fp-36]
	ld [%fp-36],%o0
	ldd [%fp-24],%o2
	std %o2,[%o0+16]
	st %g0,[%fp-28]
	sethi %hi(_event_queue),%o0
	ld [%o0+%lo(_event_queue)],%o1
	st %o1,[%fp-32]
L197:
	ld [%fp-32],%o0
	cmp %o0,0
	be L198
	nop
	ld [%fp-32],%o0
	ld [%fp-24],%o1
	ld [%o0+16],%o2
	cmp %o1,%o2
	bg L200
	nop
	ld [%fp-24],%o1
	ld [%o0+16],%o2
	cmp %o1,%o2
	bne L198
	nop
	ld [%fp-20],%o1
	ld [%o0+20],%o2
	cmp %o1,%o2
	bgu L200
	nop
	ld [%fp-20],%o1
	ld [%o0+20],%o0
	cmp %o1,%o0
	bne L198
	nop
	b L198
	nop
L200:
L199:
	ld [%fp-32],%o0
	st %o0,[%fp-28]
	ld [%fp-32],%o0
	ld [%o0],%o1
	st %o1,[%fp-32]
	b L197
	nop
L198:
	ld [%fp-28],%o0
	cmp %o0,0
	be L201
	nop
	ld [%fp-36],%o0
	ld [%fp-28],%o1
	ld [%o1],%o2
	st %o2,[%o0]
	ld [%fp-28],%o0
	ld [%fp-36],%o1
	st %o1,[%o0]
	b L202
	nop
L201:
	ld [%fp-36],%o0
	sethi %hi(_event_queue),%o1
	ld [%o1+%lo(_event_queue)],%o2
	st %o2,[%o0]
	sethi %hi(_event_queue),%o0
	ld [%fp-36],%o1
	st %o1,[%o0+%lo(_event_queue)]
L202:
L192:
	ret
	restore
	.align 4
	.proc	0110
_eventq_next_event:
	!#PROLOGUE# 0
	save %sp,-128,%sp
	!#PROLOGUE# 1
	sethi %hi(_event_queue),%o0
	ld [%o0+%lo(_event_queue)],%o1
	cmp %o1,0
	be L204
	nop
	sethi %hi(_event_queue),%o1
	ld [%o1+%lo(_event_queue)],%o0
	sethi %hi(_sim_cycle),%o1
	ld [%o0+16],%o2
	ld [%o1+%lo(_sim_cycle)],%o3
	cmp %o2,%o3
	bg L204
	nop
	ld [%o0+16],%o2
	ld [%o1+%lo(_sim_cycle)],%o3
	cmp %o2,%o3
	bne L205
	nop
	mov 4,%o2
	or %o1,%lo(_sim_cycle),%o3
	add %o2,%o3,%o1
	ld [%o0+20],%o2
	ld [%o1],%o3
	cmp %o2,%o3
	bgu L204
	nop
	ld [%o0+20],%o0
	ld [%o1],%o1
	cmp %o0,%o1
	bne L205
	nop
	b L205
	nop
L205:
	sethi %hi(_event_queue),%o0
	ld [%o0+%lo(_event_queue)],%o1
	st %o1,[%fp-20]
	sethi %hi(_event_queue),%o0
	sethi %hi(_event_queue),%o2
	ld [%o2+%lo(_event_queue)],%o1
	ld [%o1],%o2
	st %o2,[%o0+%lo(_event_queue)]
	ld [%fp-20],%o0
	ld [%fp-20],%o1
	ld [%o1+4],%o2
	ld [%o0+8],%o0
	ld [%o2+44],%o1
	cmp %o0,%o1
	bne L206
	nop
	ld [%fp-20],%o0
	ld [%o0+4],%o1
	st %o1,[%fp-24]
	ld [%fp-20],%o0
	st %o0,[%fp-28]
	ld [%fp-28],%o0
	st %g0,[%o0+4]
	ld [%fp-28],%o0
	st %g0,[%o0+8]
	ld [%fp-28],%o0
	sethi %hi(_rslink_free_list),%o1
	ld [%o1+%lo(_rslink_free_list)],%o2
	st %o2,[%o0]
	sethi %hi(_rslink_free_list),%o0
	ld [%fp-28],%o1
	st %o1,[%o0+%lo(_rslink_free_list)]
	ld [%fp-24],%i0
	b L203
	nop
	b L207
	nop
L206:
	ld [%fp-20],%o0
	st %o0,[%fp-28]
	ld [%fp-28],%o0
	st %g0,[%o0+4]
	ld [%fp-28],%o0
	st %g0,[%o0+8]
	ld [%fp-28],%o0
	sethi %hi(_rslink_free_list),%o1
	ld [%o1+%lo(_rslink_free_list)],%o2
	st %o2,[%o0]
	sethi %hi(_rslink_free_list),%o0
	ld [%fp-28],%o1
	st %o1,[%o0+%lo(_rslink_free_list)]
	call _eventq_next_event,0
	nop
	mov %o0,%i0
	b L203
	nop
L207:
	b L208
	nop
L204:
	mov 0,%i0
	b L203
	nop
L208:
L203:
	ret
	restore
	.align 4
	.proc	020
_readyq_init:
	!#PROLOGUE# 0
	save %sp,-112,%sp
	!#PROLOGUE# 1
	sethi %hi(_ready_queue),%o0
	st %g0,[%o0+%lo(_ready_queue)]
L209:
	ret
	restore
	.align 8
LC223:
	.ascii "** ready queue state **\12\0"
	.align 4
	.proc	020
_readyq_dump:
	!#PROLOGUE# 0
	save %sp,-120,%sp
	!#PROLOGUE# 1
	st %i0,[%fp+68]
	ld [%fp+68],%o0
	sethi %hi(LC223),%o2
	or %o2,%lo(LC223),%o1
	call _fprintf,0
	nop
	sethi %hi(_ready_queue),%o0
	ld [%o0+%lo(_ready_queue)],%o1
	st %o1,[%fp-20]
L211:
[...]
	sll %o4,2,%o3
	sethi %hi(_regs_F),%o5
	or %o5,%lo(_regs_F),%o4
	ld [%o3+%o4],%o2
L4944:
	st %o2,[%o0+%o1]
L4940:
	sethi %hi(_spec_mode),%o0
	ld [%o0+%lo(_spec_mode)],%o1
	cmp %o1,0
	be L4945
	nop
	ld [%fp-28],%o0
	srl %o0,16,%g1
	sethi %hi(-4372),%g3
	or %g3,%lo(-4372),%g3
	add %g3,%fp,%g3
	st %g1,[%g3]
	sethi %hi(-4372),%g4
	or %g4,%lo(-4372),%g4
	add %g4,%fp,%g4
	ld [%g4],%l4
	and %l4,255,%l4
	sethi %hi(-4372),%g4
	or %g4,%lo(-4372),%g4
	add %g4,%fp,%g4
	st %l4,[%g4]
	sethi %hi(-4372),%g3
	or %g3,%lo(-4372),%g3
	add %g3,%fp,%g3
	ld [%g3],%g1
	add %g1,1,%g1
	sethi %hi(-4372),%g3
	or %g3,%lo(-4372),%g3
	add %g3,%fp,%g3
	st %g1,[%g3]
	sethi %hi(-4372),%g4
	or %g4,%lo(-4372),%g4
	add %g4,%fp,%g4
	ld [%g4],%l4
	srl %l4,5,%l4
	sethi %hi(-4372),%g4
	or %g4,%lo(-4372),%g4
	add %g4,%fp,%g4
	st %l4,[%g4]
	sethi %hi(-4372),%g3
	or %g3,%lo(-4372),%g3
	add %g3,%fp,%g3
	ld [%g3],%o1
	sll %o1,2,%o0
	sethi %hi(_use_spec_R),%o2
	or %o2,%lo(_use_spec_R),%o1
	sethi %hi(-4372),%g1
	or %g1,%lo(-4372),%g1
	add %g1,%fp,%g1
	ld [%g1],%o3
	sll %o3,2,%o2
	sethi %hi(_use_spec_R),%o4
	or %o4,%lo(_use_spec_R),%o3
	ld [%fp-28],%o5
	srl %o5,16,%o4
	and %o4,255,%o5
	add %o5,1,%o4
	and %o4,31,%o5
	mov 1,%g2
	sll %g2,%o5,%o4
	ld [%o2+%o3],%o2
	or %o2,%o4,%o3
	st %o3,[%o0+%o1]
	ld [%fp-28],%o1
	srl %o1,16,%o0
	and %o0,255,%o1
	mov %o1,%o2
	sll %o2,2,%o0
	sethi %hi(_spec_regs_R+4),%o2
	or %o2,%lo(_spec_regs_R+4),%o1
	ld [%fp-28],%o3
	srl %o3,24,%o2
	add %o2,1,%o3
	and %o3,-2,%o2
	srl %o2,5,%o3
	mov %o3,%o4
	sll %o4,2,%o2
	sethi %hi(_use_spec_F),%o4
	or %o4,%lo(_use_spec_F),%o3
	ld [%fp-28],%o5
	srl %o5,24,%o4
	add %o4,1,%o5
	and %o5,-2,%o4
	and %o4,31,%o5
	mov 1,%g2
	sll %g2,%o5,%o4
	ld [%o2+%o3],%o3
	and %o4,%o3,%o2
	cmp %o2,0
	be L4947
	nop
	ld [%fp-28],%o3
	srl %o3,24,%o2
	mov %o2,%o3
	sll %o3,2,%o2
	sethi %hi(_spec_regs_F+4),%o4
	or %o4,%lo(_spec_regs_F+4),%o3
	ld [%o2+%o3],%o2
	b L4948
	nop
L4947:
	ld [%fp-28],%o4
	srl %o4,24,%o3
	mov %o3,%o4
	sll %o4,2,%o3
	sethi %hi(_regs_F+4),%o5
	or %o5,%lo(_regs_F+4),%o4
	ld [%o3+%o4],%o2
L4948:
	st %o2,[%o0+%o1]
	b L4946
	nop
L4945:
	ld [%fp-28],%o1
	srl %o1,16,%o0
	and %o0,255,%o1
	mov %o1,%o2
	sll %o2,2,%o0
	sethi %hi(_regs_R+4),%o2
	or %o2,%lo(_regs_R+4),%o1
	ld [%fp-28],%o3
	srl %o3,24,%o2
	add %o2,1,%o3
	and %o3,-2,%o2
	srl %o2,5,%o3
	mov %o3,%o4
	sll %o4,2,%o2
	sethi %hi(_use_spec_F),%o4
	or %o4,%lo(_use_spec_F),%o3
	ld [%fp-28],%o5
	srl %o5,24,%o4
	add %o4,1,%o5
	and %o5,-2,%o4
	and %o4,31,%o5
	mov 1,%g2
	sll %g2,%o5,%o4
	ld [%o2+%o3],%o3
	and %o4,%o3,%o2
	cmp %o2,0
	be L4949
	nop
	ld [%fp-28],%o3
	srl %o3,24,%o2
	mov %o2,%o3
	sll %o3,2,%o2
	sethi %hi(_spec_regs_F+4),%o4
	or %o4,%lo(_spec_regs_F+4),%o3
	ld [%o2+%o3],%o2
	b L4950
	nop
L4949:
	ld [%fp-28],%o4
	srl %o4,24,%o3
	mov %o3,%o4
	sll %o4,2,%o3
	sethi %hi(_regs_F+4),%o5
	or %o5,%lo(_regs_F+4),%o4
	ld [%o3+%o4],%o2
L4950:
	st %o2,[%o0+%o1]
L4946:
	b L2993
	nop
L4951:
	b L2993
	nop
L4952:
	sethi %hi(_spec_mode),%o0
	ld [%o0+%lo(_spec_mode)],%o1
	cmp %o1,0
	be L4953
	nop
	ld [%fp-28],%o0
	srl %o0,24,%l4
	sethi %hi(-4380),%g4
	or %g4,%lo(-4380),%g4
	add %g4,%fp,%g4
	st %l4,[%g4]
	sethi %hi(-4380),%g3
	or %g3,%lo(-4380),%g3
	add %g3,%fp,%g3
	ld [%g3],%g1
	and %g1,-2,%g1
	sethi %hi(-4380),%g3
	or %g3,%lo(-4380),%g3
	add %g3,%fp,%g3
	st %g1,[%g3]
	sethi %hi(-4380),%g4
	or %g4,%lo(-4380),%g4
	add %g4,%fp,%g4
	ld [%g4],%l4
	srl %l4,5,%l4
	sethi %hi(-4380),%g4
	or %g4,%lo(-4380),%g4
	add %g4,%fp,%g4
	st %l4,[%g4]
	sethi %hi(-4380),%g3
	or %g3,%lo(-4380),%g3
	add %g3,%fp,%g3
	ld [%g3],%o1
	sll %o1,2,%o0
	sethi %hi(_use_spec_F),%o2
	or %o2,%lo(_use_spec_F),%o1
	sethi %hi(-4380),%g1
	or %g1,%lo(-4380),%g1
	add %g1,%fp,%g1
	ld [%g1],%o3
	sll %o3,2,%o2
	sethi %hi(_use_spec_F),%o4
	or %o4,%lo(_use_spec_F),%o3
	ld [%fp-28],%o5
	srl %o5,24,%o4
	and %o4,-2,%o5
	and %o5,31,%o4
	mov 1,%o5
	sll %o5,%o4,%o4
	ld [%o2+%o3],%o2
	or %o2,%o4,%o3
	st %o3,[%o0+%o1]
	ld [%fp-28],%o1
	srl %o1,24,%o0
	mov %o0,%o1
	sll %o1,2,%o0
	sethi %hi(_spec_regs_F),%o2
	or %o2,%lo(_spec_regs_F),%o1
	ld [%fp-28],%o3
	srl %o3,16,%o2
	and %o2,255,%o3
	srl %o3,5,%o2
	mov %o2,%o3
	sll %o3,2,%o2
	sethi %hi(_use_spec_R),%o4
	or %o4,%lo(_use_spec_R),%o3
	ld [%fp-28],%o5
	srl %o5,16,%o4
	and %o4,255,%o5
	and %o5,31,%o4
	mov 1,%o5
	sll %o5,%o4,%o4
	ld [%o2+%o3],%o3
	and %o4,%o3,%o2
	cmp %o2,0
	be L4955
	nop
	ld [%fp-28],%o3
	srl %o3,16,%o2
	and %o2,255,%o3
	mov %o3,%o4
	sll %o4,2,%o2
	sethi %hi(_spec_regs_R),%o4
	or %o4,%lo(_spec_regs_R),%o3
	ld [%o2+%o3],%o2
	b L4956
	nop
L4955:
	ld [%fp-28],%o4
	srl %o4,16,%o3
	and %o3,255,%o4
	mov %o4,%o5
	sll %o5,2,%o3
	sethi %hi(_regs_R),%o5
	or %o5,%lo(_regs_R),%o4
	ld [%o3+%o4],%o2
L4956:
	st %o2,[%o0+%o1]
	b L4954
	nop
L4953:
	ld [%fp-28],%o1
	srl %o1,24,%o0
	mov %o0,%o1
	sll %o1,2,%o0
	sethi %hi(_regs_F),%o2
	or %o2,%lo(_regs_F),%o1
	ld [%fp-28],%o3
	srl %o3,16,%o2
	and %o2,255,%o3
	srl %o3,5,%o2
	mov %o2,%o3
	sll %o3,2,%o2
	sethi %hi(_use_spec_R),%o4
	or %o4,%lo(_use_spec_R),%o3
	ld [%fp-28],%o5
	srl %o5,16,%o4
	and %o4,255,%o5
	and %o5,31,%o4
	mov 1,%o5
	sll %o5,%o4,%o4
	ld [%o2+%o3],%o3
	and %o4,%o3,%o2
	cmp %o2,0
	be L4957
	nop
	ld [%fp-28],%o3
	srl %o3,16,%o2
	and %o2,255,%o3
	mov %o3,%o4
	sll %o4,2,%o2
	sethi %hi(_spec_regs_R),%o4
	or %o4,%lo(_spec_regs_R),%o3
	ld [%o2+%o3],%o2
	b L4958
	nop
L4957:
	ld [%fp-28],%o4
	srl %o4,16,%o3
	and %o3,255,%o4
	mov %o4,%o5
	sll %o5,2,%o3
	sethi %hi(_regs_R),%o5
	or %o5,%lo(_regs_R),%o4
	ld [%o3+%o4],%o2
L4958:
	st %o2,[%o0+%o1]
L4954:
	b L2993
	nop
L4959:
	ld [%fp-28],%o1
	srl %o1,24,%o0
	and %o0,1,%o1
	cmp %o1,0
	be L4960
	nop
	sethi %hi(_spec_mode),%o0
	ld [%o0+%lo(_spec_mode)],%o1
	cmp %o1,0
	be L4962
	nop
	b L4963
	nop
L4962:
	sethi %hi(LC340),%o1
	or %o1,%lo(LC340),%o0
	sethi %hi(LC379),%o2
	or %o2,%lo(LC379),%o1
	mov 924,%o2
	sethi %hi(LC343),%o4
	or %o4,%lo(LC343),%o3
	call __fatal,0
	nop
L4963:
	b L4961
	nop
L4960:
L4961:
	ld [%fp-28],%o1
	srl %o1,16,%o0
	and %o0,1,%o1
	cmp %o1,0
	be L4964
	nop
	sethi %hi(_spec_mode),%o0
	ld [%o0+%lo(_spec_mode)],%o1
	cmp %o1,0
	be L4966
	nop
	b L4967
	nop
L4966:
	sethi %hi(LC340),%o1
	or %o1,%lo(LC340),%o0
	sethi %hi(LC379),%o2
	or %o2,%lo(LC379),%o1
	mov 924,%o2
	sethi %hi(LC342),%o4
	or %o4,%lo(LC342),%o3
	call __fatal,0
	nop
L4967:
	b L4965
	nop
L4964:
L4965:
	sethi %hi(_spec_mode),%o0
	ld [%o0+%lo(_spec_mode)],%o1
	cmp %o1,0
	be L4968
	nop
	ld [%fp-28],%o0
	srl %o0,24,%l4
	sethi %hi(-4388),%g4
	or %g4,%lo(-4388),%g4
	add %g4,%fp,%g4
	st %l4,[%g4]
	sethi %hi(-4388),%g3
	or %g3,%lo(-4388),%g3
	add %g3,%fp,%g3
	ld [%g3],%g1
	and %g1,-2,%g1
	sethi %hi(-4388),%g3
	or %g3,%lo(-4388),%g3
	add %g3,%fp,%g3
	st %g1,[%g3]
	sethi %hi(-4388),%g4
	or %g4,%lo(-4388),%g4
	add %g4,%fp,%g4
	ld [%g4],%l4
	srl %l4,5,%l4
	sethi %hi(-4388),%g4
	or %g4,%lo(-4388),%g4
	add %g4,%fp,%g4
	st %l4,[%g4]
	sethi %hi(-4388),%g3
	or %g3,%lo(-4388),%g3
	add %g3,%fp,%g3
	ld [%g3],%o1
	sll %o1,2,%o0
	sethi %hi(_use_spec_F),%o2
	or %o2,%lo(_use_spec_F),%o1
	sethi %hi(-4388),%g1
	or %g1,%lo(-4388),%g1
	add %g1,%fp,%g1
	ld [%g1],%o3
	sll %o3,2,%o2
	sethi %hi(_use_spec_F),%o4
	or %o4,%lo(_use_spec_F),%o3
	ld [%fp-28],%o5
	srl %o5,24,%o4
	and %o4,-2,%o5
	and %o5,31,%o4
	mov 1,%o5
	sll %o5,%o4,%o4
	ld [%o2+%o3],%o2
	or %o2,%o4,%o3
	st %o3,[%o0+%o1]
	ld [%fp-28],%o1
	srl %o1,24,%o0
	mov %o0,%o1
	sll %o1,2,%o0
	sethi %hi(_spec_regs_F),%o2
	or %o2,%lo(_spec_regs_F),%o1
	ld [%fp-28],%o3
	srl %o3,16,%o2
	and %o2,255,%o3
	srl %o3,5,%o2
	mov %o2,%o3
	sll %o3,2,%o2
	sethi %hi(_use_spec_R),%o4
	or %o4,%lo(_use_spec_R),%o3
	ld [%fp-28],%o5
	srl %o5,16,%o4
	and %o4,255,%o5
	and %o5,31,%o4
	mov 1,%o5
	sll %o5,%o4,%o4
	ld [%o2+%o3],%o3
	and %o4,%o3,%o2
	cmp %o2,0
	be L4970
	nop
	ld [%fp-28],%o3
	srl %o3,16,%o2
	and %o2,255,%o3
	mov %o3,%o4
	sll %o4,2,%o2
	sethi %hi(_spec_regs_R),%o4
	or %o4,%lo(_spec_regs_R),%o3
	ld [%o2+%o3],%o2
	b L4971
	nop
L4970:
	ld [%fp-28],%o4
	srl %o4,16,%o3
	and %o3,255,%o4
	mov %o4,%o5
	sll %o5,2,%o3
	sethi %hi(_regs_R),%o5
	or %o5,%lo(_regs_R),%o4
	ld [%o3+%o4],%o2
L4971:
	st %o2,[%o0+%o1]
	b L4969
	nop
L4968:
	ld [%fp-28],%o1
	srl %o1,24,%o0
	mov %o0,%o1
	sll %o1,2,%o0
	sethi %hi(_regs_F),%o2
	or %o2,%lo(_regs_F),%o1
	ld [%fp-28],%o3
	srl %o3,16,%o2
	and %o2,255,%o3
	srl %o3,5,%o2
	mov %o2,%o3
	sll %o3,2,%o2
	sethi %hi(_use_spec_R),%o4
	or %o4,%lo(_use_spec_R),%o3
	ld [%fp-28],%o5
	srl %o5,16,%o4
	and %o4,255,%o5
	and %o5,31,%o4
	mov 1,%o5
	sll %o5,%o4,%o4
	ld [%o2+%o3],%o3
	and %o4,%o3,%o2
	cmp %o2,0
	be L4972
	nop
	ld [%fp-28],%o3
	srl %o3,16,%o2
	and %o2,255,%o3
	mov %o3,%o4
	sll %o4,2,%o2
	sethi %hi(_spec_regs_R),%o4
	or %o4,%lo(_spec_regs_R),%o3
	ld [%o2+%o3],%o2
	b L4973
	nop
L4972:
	ld [%fp-28],%o4
	srl %o4,16,%o3
	and %o3,255,%o4
	mov %o4,%o5
	sll %o5,2,%o3
	sethi %hi(_regs_R),%o5
	or %o5,%lo(_regs_R),%o4
	ld [%o3+%o4],%o2
L4973:
	st %o2,[%o0+%o1]
L4969:
	sethi %hi(_spec_mode),%o0
	ld [%o0+%lo(_spec_mode)],%o1
	cmp %o1,0
	be L4974
	nop
	ld [%fp-28],%o0
	srl %o0,24,%l4
	sethi %hi(-4396),%g4
	or %g4,%lo(-4396),%g4
	add %g4,%fp,%g4
	st %l4,[%g4]
	sethi %hi(-4396),%g3
	or %g3,%lo(-4396),%g3
	add %g3,%fp,%g3
	ld [%g3],%g1
	add %g1,1,%g1
	sethi %hi(-4396),%g3
	or %g3,%lo(-4396),%g3
	add %g3,%fp,%g3
	st %g1,[%g3]
	sethi %hi(-4396),%g4
	or %g4,%lo(-4396),%g4
	add %g4,%fp,%g4
	ld [%g4],%l4
	and %l4,-2,%l4
	sethi %hi(-4396),%g4
	or %g4,%lo(-4396),%g4
	add %g4,%fp,%g4
	st %l4,[%g4]
	sethi %hi(-4396),%g3
	or %g3,%lo(-4396),%g3
	add %g3,%fp,%g3
	ld [%g3],%g1
	srl %g1,5,%g1
	sethi %hi(-4396),%g3
	or %g3,%lo(-4396),%g3
	add %g3,%fp,%g3
	st %g1,[%g3]
	sethi %hi(-4396),%g4
	or %g4,%lo(-4396),%g4
	add %g4,%fp,%g4
	ld [%g4],%o1
	sll %o1,2,%o0
	sethi %hi(_use_spec_F),%o2
	or %o2,%lo(_use_spec_F),%o1
	sethi %hi(-4396),%l4
	or %l4,%lo(-4396),%l4
	add %l4,%fp,%l4
	ld [%l4],%o3
	sll %o3,2,%o2
	sethi %hi(_use_spec_F),%o4
	or %o4,%lo(_use_spec_F),%o3
	ld [%fp-28],%o5
	srl %o5,24,%o4
	add %o4,1,%o5
	and %o5,-2,%o4
	and %o4,31,%o5
	mov 1,%g2
	sll %g2,%o5,%o4
	ld [%o2+%o3],%o2
	or %o2,%o4,%o3
	st %o3,[%o0+%o1]
	ld [%fp-28],%o1
	srl %o1,24,%o0
	mov %o0,%o1
	sll %o1,2,%o0
	sethi %hi(_spec_regs_F+4),%o2
	or %o2,%lo(_spec_regs_F+4),%o1
	ld [%fp-28],%o3
	srl %o3,16,%o2
	and %o2,255,%o3
	add %o3,1,%o2
	srl %o2,5,%o3
	mov %o3,%o4
	sll %o4,2,%o2
	sethi %hi(_use_spec_R),%o4
	or %o4,%lo(_use_spec_R),%o3
	ld [%fp-28],%o5
	srl %o5,16,%o4
	and %o4,255,%o5
	add %o5,1,%o4
	and %o4,31,%o5
	mov 1,%g2
	sll %g2,%o5,%o4
	ld [%o2+%o3],%o3
	and %o4,%o3,%o2
	cmp %o2,0
	be L4976
	nop
	ld [%fp-28],%o3
	srl %o3,16,%o2
	and %o2,255,%o3
	mov %o3,%o4
	sll %o4,2,%o2
	sethi %hi(_spec_regs_R+4),%o4
	or %o4,%lo(_spec_regs_R+4),%o3
	ld [%o2+%o3],%o2
	b L4977
	nop
L4976:
	ld [%fp-28],%o4
	srl %o4,16,%o3
	and %o3,255,%o4
	mov %o4,%o5
	sll %o5,2,%o3
	sethi %hi(_regs_R+4),%o5
	or %o5,%lo(_regs_R+4),%o4
	ld [%o3+%o4],%o2
L4977:
	st %o2,[%o0+%o1]
	b L4975
	nop
L4974:
	ld [%fp-28],%o1
	srl %o1,24,%o0
	mov %o0,%o1
	sll %o1,2,%o0
	sethi %hi(_regs_F+4),%o2
	or %o2,%lo(_regs_F+4),%o1
	ld [%fp-28],%o3
	srl %o3,16,%o2
	and %o2,255,%o3
	add %o3,1,%o2
	srl %o2,5,%o3
	mov %o3,%o4
	sll %o4,2,%o2
	sethi %hi(_use_spec_R),%o4
	or %o4,%lo(_use_spec_R),%o3
	ld [%fp-28],%o5
	srl %o5,16,%o4
	and %o4,255,%o5
	add %o5,1,%o4
	and %o4,31,%o5
	mov 1,%g2
	sll %g2,%o5,%o4
	ld [%o2+%o3],%o3
	and %o4,%o3,%o2
	cmp %o2,0
	be L4978
	nop
	ld [%fp-28],%o3
	srl %o3,16,%o2
	and %o2,255,%o3
	mov %o3,%o4
	sll %o4,2,%o2
	sethi %hi(_spec_regs_R+4),%o4
	or %o4,%lo(_spec_regs_R+4),%o3
	ld [%o2+%o3],%o2
	b L4979
	nop
L4978:
	ld [%fp-28],%o4
	srl %o4,16,%o3
	and %o3,255,%o4
	mov %o4,%o5
	sll %o5,2,%o3
	sethi %hi(_regs_R+4),%o5
	or %o5,%lo(_regs_R+4),%o4
	ld [%o3+%o4],%o2
L4979:
	st %o2,[%o0+%o1]
L4975:
	b L2993
	nop
L4980:
	b L2993
	nop
L4981:
	sethi %hi(LC6),%o1
	or %o1,%lo(LC6),%o0
	sethi %hi(LC379),%o2
	or %o2,%lo(LC379),%o1
	mov 4052,%o2
	sethi %hi(LC382),%o4
	or %o4,%lo(LC382),%o3
	call __panic,0
	nop
L2993:
	ld [%fp-36],%o0
	mov %o0,%o1
	sll %o1,2,%o0
	sethi %hi(_ss_op2flags),%o2
	or %o2,%lo(_ss_op2flags),%o1
	ld [%o0+%o1],%o2
	and %o2,32,%o0
	cmp %o0,0
	be L4983
	nop
	ld [%fp-36],%o0
	mov %o0,%o1
	sll %o1,2,%o0
	sethi %hi(_ss_op2flags),%o2
	or %o2,%lo(_ss_op2flags),%o1
	ld [%o0+%o1],%o2
	and %o2,128,%o0
	cmp %o0,0
	be L4984
	nop
	mov 1,%o0
	st %o0,[%fp-52]
L4984:
L4983:
	sethi %hi(_dlite_check),%o0
	ld [%o0+%lo(_dlite_check)],%o1
	cmp %o1,0
	bne L4988
	nop
	sethi %hi(_dlite_active),%o0
	ld [%o0+%lo(_dlite_active)],%o1
	cmp %o1,0
	bne L4988
	nop
	b L4986
	nop
L4988:
	ld [%fp-52],%o0
	cmp %o0,0
	be L4989
	nop
	mov 2,%o1
	b L4990
	nop
L4989:
	mov 1,%o1
L4990:
	sethi %hi(_sim_num_insn),%o3
	sethi %hi(_sim_num_insn),%o0
	mov 4,%o2
	or %o0,%lo(_sim_num_insn),%o4
	add %o2,%o4,%o2
	ld [%o2],%o4
	st %o4,[%sp+92]
	ld [%o0+%lo(_sim_num_insn)],%o5
	ld [%fp-48],%o0
	ld [%fp-44],%o2
	ld [%o3+%lo(_sim_num_insn+4)],%o4
	ld [%o3+%lo(_sim_num_insn)],%o3
	call ___check_break,0
	nop
	cmp %o0,0
	bne L4987
	nop
	b L4985
	nop
L4986:
	b L4985
	nop
L4987:
	sethi %hi(_regs_PC),%o0
	sethi %hi(_sim_num_insn),%o2
	ld [%o0+%lo(_regs_PC)],%o0
	ld [%fp-48],%o1
	ldd [%o2+%lo(_sim_num_insn)],%o2
	call _dlite_main,0
	nop
L4985:
	sethi %hi(_regs_PC),%o0
	ld [%fp-48],%o1
	st %o1,[%o0+%lo(_regs_PC)]
	ld [%fp-48],%o0
	add %o0,8,%o1
	st %o1,[%fp-48]
L2992:
	ld [%fp-20],%o1
	add %o1,1,%o0
	mov %o0,%o1
	st %o1,[%fp-20]
	b L2990
	nop
L2991:
L2989:
	sethi %hi(__IO_stderr_),%o1
	or %o1,%lo(__IO_stderr_),%o0
	sethi %hi(LC383),%o2
	or %o2,%lo(LC383),%o1
	call _fprintf,0
	nop
	sethi %hi(_fetch_regs_PC),%o0
	sethi %hi(_regs_PC),%o1
	ld [%o1+%lo(_regs_PC)],%o2
	add %o2,-8,%o1
	st %o1,[%o0+%lo(_fetch_regs_PC)]
	sethi %hi(_fetch_pred_PC),%o0
	sethi %hi(_regs_PC),%o1
	ld [%o1+%lo(_regs_PC)],%o2
	st %o2,[%o0+%lo(_fetch_pred_PC)]
	sethi %hi(_regs_PC),%o0
	sethi %hi(_regs_PC),%o1
	ld [%o1+%lo(_regs_PC)],%o2
	add %o2,-8,%o1
	st %o1,[%o0+%lo(_regs_PC)]
L4991:
	sethi %hi(_RUU_num),%o0
	sethi %hi(_LSQ_num),%o1
	ld [%o0+%lo(_RUU_num)],%o0
	ld [%o1+%lo(_LSQ_num)],%o1
	cmp %o0,%o1
	bge L4994
	nop
	sethi %hi(LC6),%o1
	or %o1,%lo(LC6),%o0
	sethi %hi(LC379),%o2
	or %o2,%lo(LC379),%o1
	mov 4087,%o2
	sethi %hi(LC384),%o4
	or %o4,%lo(LC384),%o3
	call __panic,0
	nop
L4994:
	sethi %hi(_RUU_head),%o0
	sethi %hi(_RUU_num),%o1
	ld [%o0+%lo(_RUU_head)],%o0
	ld [%o1+%lo(_RUU_num)],%o1
	add %o0,%o1,%o0
	sethi %hi(_RUU_size),%o1
	ld [%o1+%lo(_RUU_size)],%o1
	call .rem,0
	nop
	sethi %hi(_RUU_tail),%o1
	ld [%o1+%lo(_RUU_tail)],%o2
	cmp %o0,%o2
	be L4995
	nop
	sethi %hi(LC6),%o1
	or %o1,%lo(LC6),%o0
	sethi %hi(LC379),%o2
	or %o2,%lo(LC379),%o1
	mov 4089,%o2
	sethi %hi(LC385),%o4
	or %o4,%lo(LC385),%o3
	call __panic,0
	nop
L4995:
	sethi %hi(_LSQ_head),%o0
	sethi %hi(_LSQ_num),%o1
	ld [%o0+%lo(_LSQ_head)],%o0
	ld [%o1+%lo(_LSQ_num)],%o1
	add %o0,%o1,%o0
	sethi %hi(_LSQ_size),%o1
	ld [%o1+%lo(_LSQ_size)],%o1
	call .rem,0
	nop
	sethi %hi(_LSQ_tail),%o1
	ld [%o1+%lo(_LSQ_tail)],%o2
	cmp %o0,%o2
	be L4996
	nop
	sethi %hi(LC6),%o1
	or %o1,%lo(LC6),%o0
	sethi %hi(LC379),%o2
	or %o2,%lo(LC379),%o1
	mov 4091,%o2
	sethi %hi(LC386),%o4
	or %o4,%lo(LC386),%o3
	call __panic,0
	nop
L4996:
	sethi %hi(_ptrace_outfd),%o0
	ld [%o0+%lo(_ptrace_outfd)],%o1
	cmp %o1,0
	be L4997
	nop
	sethi %hi(_regs_PC),%o1
	sethi %hi(_sim_num_insn),%o2
	sethi %hi(_sim_cycle),%o4
	sethi %hi(_ptrace_range),%o3
	or %o3,%lo(_ptrace_range),%o0
	ld [%o1+%lo(_regs_PC)],%o1
	ldd [%o2+%lo(_sim_num_insn)],%o2
	ldd [%o4+%lo(_sim_cycle)],%o4
	call _range_cmp_range1,0
	nop
	cmp %o0,0
	bne L4997
	nop
	sethi %hi(_ptrace_oneshot),%o0
	ld [%o0+%lo(_ptrace_oneshot)],%o1
	cmp %o1,0
	bne L4999
	nop
	sethi %hi(_ptrace_active),%o0
	sethi %hi(_ptrace_oneshot),%o1
	mov 1,%o2
	st %o2,[%o1+%lo(_ptrace_oneshot)]
	mov 1,%o1
	st %o1,[%o0+%lo(_ptrace_active)]
	b L5000
	nop
L4999:
L5000:
	b L4998
	nop
L4997:
	sethi %hi(_ptrace_active),%o0
	st %g0,[%o0+%lo(_ptrace_active)]
L4998:
	sethi %hi(_ptrace_active),%o0
	ld [%o0+%lo(_ptrace_active)],%o1
	cmp %o1,0
	be L5001
	nop
	sethi %hi(_sim_cycle),%o2
	ldd [%o2+%lo(_sim_cycle)],%o0
	call ___ptrace_newcycle,0
	nop
L5001:
	call _ruu_commit,0
	nop
	call _ruu_release_fu,0
	nop
	call _ruu_writeback,0
	nop
	sethi %hi(_bugcompat_mode),%o0
	ld [%o0+%lo(_bugcompat_mode)],%o1
	cmp %o1,0
	bne L5002
	nop
	call _lsq_refresh,0
	nop
	call _ruu_issue,0
	nop
L5002:
	call _ruu_dispatch,0
	nop
	sethi %hi(_bugcompat_mode),%o0
	ld [%o0+%lo(_bugcompat_mode)],%o1
	cmp %o1,0
	be L5003
	nop
	call _lsq_refresh,0
	nop
	call _ruu_issue,0
	nop
L5003:
	sethi %hi(_ruu_fetch_issue_delay),%o0
	ld [%o0+%lo(_ruu_fetch_issue_delay)],%o1
	cmp %o1,0
	bne L5004
	nop
	call _ruu_fetch,0
	nop
	b L5005
	nop
L5004:
	sethi %hi(_ruu_fetch_issue_delay),%o1
	sethi %hi(_ruu_fetch_issue_delay),%o0
	sethi %hi(_ruu_fetch_issue_delay),%o1
	ld [%o1+%lo(_ruu_fetch_issue_delay)],%o2
	add %o2,-1,%o1
	mov %o1,%o2
	st %o2,[%o0+%lo(_ruu_fetch_issue_delay)]
L5005:
	sethi %hi(_sim_cycle),%o1
	sethi %hi(_sim_cycle),%o0
	sethi %hi(_sim_cycle),%o1
	ldd [%o1+%lo(_sim_cycle)],%o4
	addcc %o5,1,%o3
	addx %o4,0,%o2
	mov %o2,%o4
	mov %o3,%o5
	std %o4,[%o0+%lo(_sim_cycle)]
	sethi %hi(_max_insts),%o0
	ld [%o0+%lo(_max_insts)],%o1
	cmp %o1,0
	be L5006
	nop
	sethi %hi(_max_insts),%o2
	ld [%o2+%lo(_max_insts)],%o1
	mov 0,%o0
	sethi %hi(_sim_total_insn),%o2
	ld [%o2+%lo(_sim_total_insn)],%o3
	cmp %o0,%o3
	bg L5006
	nop
	ld [%o2+%lo(_sim_total_insn)],%o3
	cmp %o0,%o3
	bne L5007
	nop
	mov 4,%o3
	or %o2,%lo(_sim_total_insn),%o4
	add %o3,%o4,%o2
	ld [%o2],%o3
	cmp %o1,%o3
	bgu L5006
	nop
	ld [%o2],%o2
	cmp %o1,%o2
	bne L5007
	nop
	b L5007
	nop
L5007:
	b L2984
	nop
L5006:
L4993:
	b L4991
	nop
L4992:
L2984:
	ret
	restore
	.global _sim_odb
	.common _sim_odb,8,"bss"
	.global _sim_sdb
	.common _sim_sdb,8,"bss"

	.reserve _max_insts,8,"bss"

	.reserve _fastfwd_count,8,"bss"

	.reserve _ptrace_opts,8,"bss"

	.reserve _ruu_ifq_size,8,"bss"

	.reserve _ruu_branch_penalty,8,"bss"

	.reserve _pred_type,8,"bss"

	.reserve _btb_size,8,"bss"

	.reserve _ruu_decode_width,8,"bss"

	.reserve _ruu_issue_width,8,"bss"

	.reserve _ruu_inorder_issue,8,"bss"

	.reserve _ruu_commit_width,8,"bss"

	.reserve _cache_dl1_opt,8,"bss"

	.reserve _cache_dl1_lat,8,"bss"

	.reserve _cache_dl2_opt,8,"bss"

	.reserve _cache_dl2_lat,8,"bss"

	.reserve _cache_il1_opt,8,"bss"

	.reserve _cache_il1_lat,8,"bss"

	.reserve _cache_il2_opt,8,"bss"

	.reserve _cache_il2_lat,8,"bss"

	.reserve _flush_on_syscalls,8,"bss"

	.reserve _compress_icache_addrs,8,"bss"

	.reserve _mem_bus_width,8,"bss"

	.reserve _itlb_opt,8,"bss"

	.reserve _dtlb_opt,8,"bss"

	.reserve _tlb_miss_lat,8,"bss"

	.reserve _res_ialu,8,"bss"

	.reserve _res_imult,8,"bss"

	.reserve _res_memport,8,"bss"

	.reserve _res_fpalu,8,"bss"

	.reserve _res_fpmult,8,"bss"

	.reserve _pcstat_vars,32,"bss"

	.reserve _bugcompat_mode,8,"bss"

	.reserve _cache_il1,8,"bss"

	.reserve _cache_il2,8,"bss"

	.reserve _cache_dl1,8,"bss"

	.reserve _cache_dl2,8,"bss"

	.reserve _itlb,8,"bss"

	.reserve _dtlb,8,"bss"

	.reserve _pred,8,"bss"

	.reserve _pcstat_stats,32,"bss"

	.reserve _pcstat_lastvals,64,"bss"

	.reserve _pcstat_sdists,32,"bss"

	.reserve _RUU,8,"bss"

	.reserve _RUU_head,8,"bss"

	.reserve _RUU_tail,8,"bss"

	.reserve _RUU_num,8,"bss"

	.reserve _LSQ,8,"bss"

	.reserve _LSQ_head,8,"bss"

	.reserve _LSQ_tail,8,"bss"

	.reserve _LSQ_num,8,"bss"

	.reserve _rslink_free_list,8,"bss"

	.reserve _event_queue,8,"bss"

	.reserve _ready_queue,8,"bss"

	.reserve _use_spec_cv,16,"bss"

	.reserve _create_vector,560,"bss"

	.reserve _spec_create_vector,560,"bss"

	.reserve _create_vector_rt,560,"bss"

	.reserve _spec_create_vector_rt,560,"bss"

	.reserve _use_spec_R,8,"bss"

	.reserve _spec_regs_R,128,"bss"

	.reserve _use_spec_F,8,"bss"

	.reserve _spec_regs_F,128,"bss"

	.reserve _use_spec_HI,8,"bss"

	.reserve _spec_regs_HI,8,"bss"

	.reserve _use_spec_LO,8,"bss"

	.reserve _spec_regs_LO,8,"bss"

	.reserve _use_spec_FCC,8,"bss"

	.reserve _spec_regs_FCC,8,"bss"

	.reserve _store_htable,128,"bss"

	.reserve _pred_PC,8,"bss"

	.reserve _recover_PC,8,"bss"

	.reserve _fetch_regs_PC,8,"bss"

	.reserve _fetch_pred_PC,8,"bss"

	.reserve _fetch_data,8,"bss"

	.reserve _fetch_num,8,"bss"

	.reserve _fetch_tail,8,"bss"

	.reserve _fetch_head,8,"bss"
